/PREP7
ALLSEL,ALL
*MSG,INFO
ASSIGNING MATERIAL PROPERTIES. PLEASE WAIT...
/NOPR         !Disable output

!These material properties defined in Matlab!

!*---------------MATERIAL 1 (Used by 5 elements)------------------
MP,EX,1,70.8925
MP,NUXY,1,0.30

!*---------------MATERIAL 2 (Used by 33 elements)------------------
MP,EX,2,109.316264729459
MP,NUXY,2,0.30

!*---------------MATERIAL 3 (Used by 46 elements)------------------
MP,EX,3,147.740029458918
MP,NUXY,3,0.30

!*---------------MATERIAL 4 (Used by 46 elements)------------------
MP,EX,4,186.163794188377
MP,NUXY,4,0.30

!*---------------MATERIAL 5 (Used by 45 elements)------------------
MP,EX,5,224.587558917836
MP,NUXY,5,0.30

!*---------------MATERIAL 6 (Used by 37 elements)------------------
MP,EX,6,263.011323647295
MP,NUXY,6,0.30

!*---------------MATERIAL 7 (Used by 28 elements)------------------
MP,EX,7,301.435088376753
MP,NUXY,7,0.30

!*---------------MATERIAL 8 (Used by 28 elements)------------------
MP,EX,8,339.858853106212
MP,NUXY,8,0.30

!*---------------MATERIAL 9 (Used by 38 elements)------------------
MP,EX,9,378.282617835671
MP,NUXY,9,0.30

!*---------------MATERIAL 10 (Used by 45 elements)------------------
MP,EX,10,416.70638256513
MP,NUXY,10,0.30

!*---------------MATERIAL 11 (Used by 52 elements)------------------
MP,EX,11,455.130147294589
MP,NUXY,11,0.30

!*---------------MATERIAL 12 (Used by 69 elements)------------------
MP,EX,12,493.553912024048
MP,NUXY,12,0.30

!*---------------MATERIAL 13 (Used by 78 elements)------------------
MP,EX,13,531.977676753507
MP,NUXY,13,0.30

!*---------------MATERIAL 14 (Used by 85 elements)------------------
MP,EX,14,570.401441482966
MP,NUXY,14,0.30

!*---------------MATERIAL 15 (Used by 78 elements)------------------
MP,EX,15,608.825206212425
MP,NUXY,15,0.30

!*---------------MATERIAL 16 (Used by 91 elements)------------------
MP,EX,16,647.248970941884
MP,NUXY,16,0.30

!*---------------MATERIAL 17 (Used by 105 elements)------------------
MP,EX,17,685.672735671343
MP,NUXY,17,0.30

!*---------------MATERIAL 18 (Used by 111 elements)------------------
MP,EX,18,724.096500400802
MP,NUXY,18,0.30

!*---------------MATERIAL 19 (Used by 98 elements)------------------
MP,EX,19,762.520265130261
MP,NUXY,19,0.30

!*---------------MATERIAL 20 (Used by 118 elements)------------------
MP,EX,20,800.944029859719
MP,NUXY,20,0.30

!*---------------MATERIAL 21 (Used by 113 elements)------------------
MP,EX,21,839.367794589178
MP,NUXY,21,0.30

!*---------------MATERIAL 22 (Used by 99 elements)------------------
MP,EX,22,877.791559318637
MP,NUXY,22,0.30

!*---------------MATERIAL 23 (Used by 126 elements)------------------
MP,EX,23,916.215324048096
MP,NUXY,23,0.30

!*---------------MATERIAL 24 (Used by 121 elements)------------------
MP,EX,24,954.639088777555
MP,NUXY,24,0.30

!*---------------MATERIAL 25 (Used by 122 elements)------------------
MP,EX,25,993.062853507014
MP,NUXY,25,0.30

!*---------------MATERIAL 26 (Used by 137 elements)------------------
MP,EX,26,1031.48661823647
MP,NUXY,26,0.30

!*---------------MATERIAL 27 (Used by 104 elements)------------------
MP,EX,27,1069.91038296593
MP,NUXY,27,0.30

!*---------------MATERIAL 28 (Used by 123 elements)------------------
MP,EX,28,1108.33414769539
MP,NUXY,28,0.30

!*---------------MATERIAL 29 (Used by 126 elements)------------------
MP,EX,29,1146.75791242485
MP,NUXY,29,0.30

!*---------------MATERIAL 30 (Used by 132 elements)------------------
MP,EX,30,1185.18167715431
MP,NUXY,30,0.30

!*---------------MATERIAL 31 (Used by 115 elements)------------------
MP,EX,31,1223.60544188377
MP,NUXY,31,0.30

!*---------------MATERIAL 32 (Used by 127 elements)------------------
MP,EX,32,1262.02920661323
MP,NUXY,32,0.30

!*---------------MATERIAL 33 (Used by 137 elements)------------------
MP,EX,33,1300.45297134269
MP,NUXY,33,0.30

!*---------------MATERIAL 34 (Used by 150 elements)------------------
MP,EX,34,1338.87673607214
MP,NUXY,34,0.30

!*---------------MATERIAL 35 (Used by 147 elements)------------------
MP,EX,35,1377.3005008016
MP,NUXY,35,0.30

!*---------------MATERIAL 36 (Used by 145 elements)------------------
MP,EX,36,1415.72426553106
MP,NUXY,36,0.30

!*---------------MATERIAL 37 (Used by 155 elements)------------------
MP,EX,37,1454.14803026052
MP,NUXY,37,0.30

!*---------------MATERIAL 38 (Used by 167 elements)------------------
MP,EX,38,1492.57179498998
MP,NUXY,38,0.30

!*---------------MATERIAL 39 (Used by 172 elements)------------------
MP,EX,39,1530.99555971944
MP,NUXY,39,0.30

!*---------------MATERIAL 40 (Used by 163 elements)------------------
MP,EX,40,1569.4193244489
MP,NUXY,40,0.30

!*---------------MATERIAL 41 (Used by 153 elements)------------------
MP,EX,41,1607.84308917836
MP,NUXY,41,0.30

!*---------------MATERIAL 42 (Used by 156 elements)------------------
MP,EX,42,1646.26685390782
MP,NUXY,42,0.30

!*---------------MATERIAL 43 (Used by 167 elements)------------------
MP,EX,43,1684.69061863727
MP,NUXY,43,0.30

!*---------------MATERIAL 44 (Used by 146 elements)------------------
MP,EX,44,1723.11438336673
MP,NUXY,44,0.30

!*---------------MATERIAL 45 (Used by 147 elements)------------------
MP,EX,45,1761.53814809619
MP,NUXY,45,0.30

!*---------------MATERIAL 46 (Used by 158 elements)------------------
MP,EX,46,1799.96191282565
MP,NUXY,46,0.30

!*---------------MATERIAL 47 (Used by 164 elements)------------------
MP,EX,47,1838.38567755511
MP,NUXY,47,0.30

!*---------------MATERIAL 48 (Used by 162 elements)------------------
MP,EX,48,1876.80944228457
MP,NUXY,48,0.30

!*---------------MATERIAL 49 (Used by 167 elements)------------------
MP,EX,49,1915.23320701403
MP,NUXY,49,0.30

!*---------------MATERIAL 50 (Used by 172 elements)------------------
MP,EX,50,1953.65697174349
MP,NUXY,50,0.30

!*---------------MATERIAL 51 (Used by 149 elements)------------------
MP,EX,51,1992.08073647295
MP,NUXY,51,0.30

!*---------------MATERIAL 52 (Used by 151 elements)------------------
MP,EX,52,2030.5045012024
MP,NUXY,52,0.30

!*---------------MATERIAL 53 (Used by 162 elements)------------------
MP,EX,53,2068.92826593186
MP,NUXY,53,0.30

!*---------------MATERIAL 54 (Used by 144 elements)------------------
MP,EX,54,2107.35203066132
MP,NUXY,54,0.30

!*---------------MATERIAL 55 (Used by 154 elements)------------------
MP,EX,55,2145.77579539078
MP,NUXY,55,0.30

!*---------------MATERIAL 56 (Used by 133 elements)------------------
MP,EX,56,2184.19956012024
MP,NUXY,56,0.30

!*---------------MATERIAL 57 (Used by 148 elements)------------------
MP,EX,57,2222.6233248497
MP,NUXY,57,0.30

!*---------------MATERIAL 58 (Used by 136 elements)------------------
MP,EX,58,2261.04708957916
MP,NUXY,58,0.30

!*---------------MATERIAL 59 (Used by 142 elements)------------------
MP,EX,59,2299.47085430862
MP,NUXY,59,0.30

!*---------------MATERIAL 60 (Used by 136 elements)------------------
MP,EX,60,2337.89461903808
MP,NUXY,60,0.30

!*---------------MATERIAL 61 (Used by 121 elements)------------------
MP,EX,61,2376.31838376753
MP,NUXY,61,0.30

!*---------------MATERIAL 62 (Used by 110 elements)------------------
MP,EX,62,2414.74214849699
MP,NUXY,62,0.30

!*---------------MATERIAL 63 (Used by 130 elements)------------------
MP,EX,63,2453.16591322645
MP,NUXY,63,0.30

!*---------------MATERIAL 64 (Used by 120 elements)------------------
MP,EX,64,2491.58967795591
MP,NUXY,64,0.30

!*---------------MATERIAL 65 (Used by 130 elements)------------------
MP,EX,65,2530.01344268537
MP,NUXY,65,0.30

!*---------------MATERIAL 66 (Used by 119 elements)------------------
MP,EX,66,2568.43720741483
MP,NUXY,66,0.30

!*---------------MATERIAL 67 (Used by 125 elements)------------------
MP,EX,67,2606.86097214429
MP,NUXY,67,0.30

!*---------------MATERIAL 68 (Used by 124 elements)------------------
MP,EX,68,2645.28473687375
MP,NUXY,68,0.30

!*---------------MATERIAL 69 (Used by 139 elements)------------------
MP,EX,69,2683.70850160321
MP,NUXY,69,0.30

!*---------------MATERIAL 70 (Used by 114 elements)------------------
MP,EX,70,2722.13226633267
MP,NUXY,70,0.30

!*---------------MATERIAL 71 (Used by 140 elements)------------------
MP,EX,71,2760.55603106212
MP,NUXY,71,0.30

!*---------------MATERIAL 72 (Used by 124 elements)------------------
MP,EX,72,2798.97979579158
MP,NUXY,72,0.30

!*---------------MATERIAL 73 (Used by 117 elements)------------------
MP,EX,73,2837.40356052104
MP,NUXY,73,0.30

!*---------------MATERIAL 74 (Used by 119 elements)------------------
MP,EX,74,2875.8273252505
MP,NUXY,74,0.30

!*---------------MATERIAL 75 (Used by 118 elements)------------------
MP,EX,75,2914.25108997996
MP,NUXY,75,0.30

!*---------------MATERIAL 76 (Used by 122 elements)------------------
MP,EX,76,2952.67485470942
MP,NUXY,76,0.30

!*---------------MATERIAL 77 (Used by 121 elements)------------------
MP,EX,77,2991.09861943888
MP,NUXY,77,0.30

!*---------------MATERIAL 78 (Used by 120 elements)------------------
MP,EX,78,3029.52238416834
MP,NUXY,78,0.30

!*---------------MATERIAL 79 (Used by 108 elements)------------------
MP,EX,79,3067.9461488978
MP,NUXY,79,0.30

!*---------------MATERIAL 80 (Used by 117 elements)------------------
MP,EX,80,3106.36991362725
MP,NUXY,80,0.30

!*---------------MATERIAL 81 (Used by 106 elements)------------------
MP,EX,81,3144.79367835671
MP,NUXY,81,0.30

!*---------------MATERIAL 82 (Used by 100 elements)------------------
MP,EX,82,3183.21744308617
MP,NUXY,82,0.30

!*---------------MATERIAL 83 (Used by 104 elements)------------------
MP,EX,83,3221.64120781563
MP,NUXY,83,0.30

!*---------------MATERIAL 84 (Used by 94 elements)------------------
MP,EX,84,3260.06497254509
MP,NUXY,84,0.30

!*---------------MATERIAL 85 (Used by 96 elements)------------------
MP,EX,85,3298.48873727455
MP,NUXY,85,0.30

!*---------------MATERIAL 86 (Used by 85 elements)------------------
MP,EX,86,3336.91250200401
MP,NUXY,86,0.30

!*---------------MATERIAL 87 (Used by 88 elements)------------------
MP,EX,87,3375.33626673347
MP,NUXY,87,0.30

!*---------------MATERIAL 88 (Used by 95 elements)------------------
MP,EX,88,3413.76003146293
MP,NUXY,88,0.30

!*---------------MATERIAL 89 (Used by 67 elements)------------------
MP,EX,89,3452.18379619238
MP,NUXY,89,0.30

!*---------------MATERIAL 90 (Used by 74 elements)------------------
MP,EX,90,3490.60756092184
MP,NUXY,90,0.30

!*---------------MATERIAL 91 (Used by 91 elements)------------------
MP,EX,91,3529.0313256513
MP,NUXY,91,0.30

!*---------------MATERIAL 92 (Used by 84 elements)------------------
MP,EX,92,3567.45509038076
MP,NUXY,92,0.30

!*---------------MATERIAL 93 (Used by 98 elements)------------------
MP,EX,93,3605.87885511022
MP,NUXY,93,0.30

!*---------------MATERIAL 94 (Used by 61 elements)------------------
MP,EX,94,3644.30261983968
MP,NUXY,94,0.30

!*---------------MATERIAL 95 (Used by 57 elements)------------------
MP,EX,95,3682.72638456914
MP,NUXY,95,0.30

!*---------------MATERIAL 96 (Used by 83 elements)------------------
MP,EX,96,3721.1501492986
MP,NUXY,96,0.30

!*---------------MATERIAL 97 (Used by 73 elements)------------------
MP,EX,97,3759.57391402806
MP,NUXY,97,0.30

!*---------------MATERIAL 98 (Used by 85 elements)------------------
MP,EX,98,3797.99767875751
MP,NUXY,98,0.30

!*---------------MATERIAL 99 (Used by 83 elements)------------------
MP,EX,99,3836.42144348697
MP,NUXY,99,0.30

!*---------------MATERIAL 100 (Used by 71 elements)------------------
MP,EX,100,3874.84520821643
MP,NUXY,100,0.30

!*---------------MATERIAL 101 (Used by 60 elements)------------------
MP,EX,101,3913.26897294589
MP,NUXY,101,0.30

!*---------------MATERIAL 102 (Used by 56 elements)------------------
MP,EX,102,3951.69273767535
MP,NUXY,102,0.30

!*---------------MATERIAL 103 (Used by 67 elements)------------------
MP,EX,103,3990.11650240481
MP,NUXY,103,0.30

!*---------------MATERIAL 104 (Used by 59 elements)------------------
MP,EX,104,4028.54026713427
MP,NUXY,104,0.30

!*---------------MATERIAL 105 (Used by 75 elements)------------------
MP,EX,105,4066.96403186373
MP,NUXY,105,0.30

!*---------------MATERIAL 106 (Used by 54 elements)------------------
MP,EX,106,4105.38779659319
MP,NUXY,106,0.30

!*---------------MATERIAL 107 (Used by 68 elements)------------------
MP,EX,107,4143.81156132264
MP,NUXY,107,0.30

!*---------------MATERIAL 108 (Used by 60 elements)------------------
MP,EX,108,4182.2353260521
MP,NUXY,108,0.30

!*---------------MATERIAL 109 (Used by 51 elements)------------------
MP,EX,109,4220.65909078156
MP,NUXY,109,0.30

!*---------------MATERIAL 110 (Used by 50 elements)------------------
MP,EX,110,4259.08285551102
MP,NUXY,110,0.30

!*---------------MATERIAL 111 (Used by 37 elements)------------------
MP,EX,111,4297.50662024048
MP,NUXY,111,0.30

!*---------------MATERIAL 112 (Used by 48 elements)------------------
MP,EX,112,4335.93038496994
MP,NUXY,112,0.30

!*---------------MATERIAL 113 (Used by 57 elements)------------------
MP,EX,113,4374.3541496994
MP,NUXY,113,0.30

!*---------------MATERIAL 114 (Used by 53 elements)------------------
MP,EX,114,4412.77791442886
MP,NUXY,114,0.30

!*---------------MATERIAL 115 (Used by 42 elements)------------------
MP,EX,115,4451.20167915832
MP,NUXY,115,0.30

!*---------------MATERIAL 116 (Used by 56 elements)------------------
MP,EX,116,4489.62544388778
MP,NUXY,116,0.30

!*---------------MATERIAL 117 (Used by 46 elements)------------------
MP,EX,117,4528.04920861723
MP,NUXY,117,0.30

!*---------------MATERIAL 118 (Used by 50 elements)------------------
MP,EX,118,4566.47297334669
MP,NUXY,118,0.30

!*---------------MATERIAL 119 (Used by 40 elements)------------------
MP,EX,119,4604.89673807615
MP,NUXY,119,0.30

!*---------------MATERIAL 120 (Used by 32 elements)------------------
MP,EX,120,4643.32050280561
MP,NUXY,120,0.30

!*---------------MATERIAL 121 (Used by 43 elements)------------------
MP,EX,121,4681.74426753507
MP,NUXY,121,0.30

!*---------------MATERIAL 122 (Used by 39 elements)------------------
MP,EX,122,4720.16803226453
MP,NUXY,122,0.30

!*---------------MATERIAL 123 (Used by 43 elements)------------------
MP,EX,123,4758.59179699399
MP,NUXY,123,0.30

!*---------------MATERIAL 124 (Used by 36 elements)------------------
MP,EX,124,4797.01556172345
MP,NUXY,124,0.30

!*---------------MATERIAL 125 (Used by 40 elements)------------------
MP,EX,125,4835.43932645291
MP,NUXY,125,0.30

!*---------------MATERIAL 126 (Used by 47 elements)------------------
MP,EX,126,4873.86309118236
MP,NUXY,126,0.30

!*---------------MATERIAL 127 (Used by 45 elements)------------------
MP,EX,127,4912.28685591182
MP,NUXY,127,0.30

!*---------------MATERIAL 128 (Used by 39 elements)------------------
MP,EX,128,4950.71062064128
MP,NUXY,128,0.30

!*---------------MATERIAL 129 (Used by 41 elements)------------------
MP,EX,129,4989.13438537074
MP,NUXY,129,0.30

!*---------------MATERIAL 130 (Used by 43 elements)------------------
MP,EX,130,5027.5581501002
MP,NUXY,130,0.30

!*---------------MATERIAL 131 (Used by 35 elements)------------------
MP,EX,131,5065.98191482966
MP,NUXY,131,0.30

!*---------------MATERIAL 132 (Used by 36 elements)------------------
MP,EX,132,5104.40567955912
MP,NUXY,132,0.30

!*---------------MATERIAL 133 (Used by 29 elements)------------------
MP,EX,133,5142.82944428858
MP,NUXY,133,0.30

!*---------------MATERIAL 134 (Used by 31 elements)------------------
MP,EX,134,5181.25320901804
MP,NUXY,134,0.30

!*---------------MATERIAL 135 (Used by 37 elements)------------------
MP,EX,135,5219.67697374749
MP,NUXY,135,0.30

!*---------------MATERIAL 136 (Used by 41 elements)------------------
MP,EX,136,5258.10073847695
MP,NUXY,136,0.30

!*---------------MATERIAL 137 (Used by 27 elements)------------------
MP,EX,137,5296.52450320641
MP,NUXY,137,0.30

!*---------------MATERIAL 138 (Used by 30 elements)------------------
MP,EX,138,5334.94826793587
MP,NUXY,138,0.30

!*---------------MATERIAL 139 (Used by 37 elements)------------------
MP,EX,139,5373.37203266533
MP,NUXY,139,0.30

!*---------------MATERIAL 140 (Used by 28 elements)------------------
MP,EX,140,5411.79579739479
MP,NUXY,140,0.30

!*---------------MATERIAL 141 (Used by 31 elements)------------------
MP,EX,141,5450.21956212425
MP,NUXY,141,0.30

!*---------------MATERIAL 142 (Used by 35 elements)------------------
MP,EX,142,5488.64332685371
MP,NUXY,142,0.30

!*---------------MATERIAL 143 (Used by 32 elements)------------------
MP,EX,143,5527.06709158317
MP,NUXY,143,0.30

!*---------------MATERIAL 144 (Used by 27 elements)------------------
MP,EX,144,5565.49085631263
MP,NUXY,144,0.30

!*---------------MATERIAL 145 (Used by 32 elements)------------------
MP,EX,145,5603.91462104208
MP,NUXY,145,0.30

!*---------------MATERIAL 146 (Used by 35 elements)------------------
MP,EX,146,5642.33838577154
MP,NUXY,146,0.30

!*---------------MATERIAL 147 (Used by 33 elements)------------------
MP,EX,147,5680.762150501
MP,NUXY,147,0.30

!*---------------MATERIAL 148 (Used by 27 elements)------------------
MP,EX,148,5719.18591523046
MP,NUXY,148,0.30

!*---------------MATERIAL 149 (Used by 33 elements)------------------
MP,EX,149,5757.60967995992
MP,NUXY,149,0.30

!*---------------MATERIAL 150 (Used by 39 elements)------------------
MP,EX,150,5796.03344468938
MP,NUXY,150,0.30

!*---------------MATERIAL 151 (Used by 36 elements)------------------
MP,EX,151,5834.45720941884
MP,NUXY,151,0.30

!*---------------MATERIAL 152 (Used by 28 elements)------------------
MP,EX,152,5872.8809741483
MP,NUXY,152,0.30

!*---------------MATERIAL 153 (Used by 34 elements)------------------
MP,EX,153,5911.30473887776
MP,NUXY,153,0.30

!*---------------MATERIAL 154 (Used by 26 elements)------------------
MP,EX,154,5949.72850360721
MP,NUXY,154,0.30

!*---------------MATERIAL 155 (Used by 23 elements)------------------
MP,EX,155,5988.15226833667
MP,NUXY,155,0.30

!*---------------MATERIAL 156 (Used by 33 elements)------------------
MP,EX,156,6026.57603306613
MP,NUXY,156,0.30

!*---------------MATERIAL 157 (Used by 26 elements)------------------
MP,EX,157,6064.99979779559
MP,NUXY,157,0.30

!*---------------MATERIAL 158 (Used by 22 elements)------------------
MP,EX,158,6103.42356252505
MP,NUXY,158,0.30

!*---------------MATERIAL 159 (Used by 22 elements)------------------
MP,EX,159,6141.84732725451
MP,NUXY,159,0.30

!*---------------MATERIAL 160 (Used by 33 elements)------------------
MP,EX,160,6180.27109198397
MP,NUXY,160,0.30

!*---------------MATERIAL 161 (Used by 32 elements)------------------
MP,EX,161,6218.69485671343
MP,NUXY,161,0.30

!*---------------MATERIAL 162 (Used by 21 elements)------------------
MP,EX,162,6257.11862144289
MP,NUXY,162,0.30

!*---------------MATERIAL 163 (Used by 32 elements)------------------
MP,EX,163,6295.54238617234
MP,NUXY,163,0.30

!*---------------MATERIAL 164 (Used by 23 elements)------------------
MP,EX,164,6333.9661509018
MP,NUXY,164,0.30

!*---------------MATERIAL 165 (Used by 28 elements)------------------
MP,EX,165,6372.38991563126
MP,NUXY,165,0.30

!*---------------MATERIAL 166 (Used by 23 elements)------------------
MP,EX,166,6410.81368036072
MP,NUXY,166,0.30

!*---------------MATERIAL 167 (Used by 24 elements)------------------
MP,EX,167,6449.23744509018
MP,NUXY,167,0.30

!*---------------MATERIAL 168 (Used by 28 elements)------------------
MP,EX,168,6487.66120981964
MP,NUXY,168,0.30

!*---------------MATERIAL 169 (Used by 30 elements)------------------
MP,EX,169,6526.0849745491
MP,NUXY,169,0.30

!*---------------MATERIAL 170 (Used by 26 elements)------------------
MP,EX,170,6564.50873927856
MP,NUXY,170,0.30

!*---------------MATERIAL 171 (Used by 22 elements)------------------
MP,EX,171,6602.93250400802
MP,NUXY,171,0.30

!*---------------MATERIAL 172 (Used by 28 elements)------------------
MP,EX,172,6641.35626873747
MP,NUXY,172,0.30

!*---------------MATERIAL 173 (Used by 14 elements)------------------
MP,EX,173,6679.78003346693
MP,NUXY,173,0.30

!*---------------MATERIAL 174 (Used by 20 elements)------------------
MP,EX,174,6718.20379819639
MP,NUXY,174,0.30

!*---------------MATERIAL 175 (Used by 13 elements)------------------
MP,EX,175,6756.62756292585
MP,NUXY,175,0.30

!*---------------MATERIAL 176 (Used by 19 elements)------------------
MP,EX,176,6795.05132765531
MP,NUXY,176,0.30

!*---------------MATERIAL 177 (Used by 23 elements)------------------
MP,EX,177,6833.47509238477
MP,NUXY,177,0.30

!*---------------MATERIAL 178 (Used by 15 elements)------------------
MP,EX,178,6871.89885711423
MP,NUXY,178,0.30

!*---------------MATERIAL 179 (Used by 25 elements)------------------
MP,EX,179,6910.32262184369
MP,NUXY,179,0.30

!*---------------MATERIAL 180 (Used by 18 elements)------------------
MP,EX,180,6948.74638657315
MP,NUXY,180,0.30

!*---------------MATERIAL 181 (Used by 16 elements)------------------
MP,EX,181,6987.1701513026
MP,NUXY,181,0.30

!*---------------MATERIAL 182 (Used by 17 elements)------------------
MP,EX,182,7025.59391603206
MP,NUXY,182,0.30

!*---------------MATERIAL 183 (Used by 19 elements)------------------
MP,EX,183,7064.01768076152
MP,NUXY,183,0.30

!*---------------MATERIAL 184 (Used by 16 elements)------------------
MP,EX,184,7102.44144549098
MP,NUXY,184,0.30

!*---------------MATERIAL 185 (Used by 18 elements)------------------
MP,EX,185,7140.86521022044
MP,NUXY,185,0.30

!*---------------MATERIAL 186 (Used by 19 elements)------------------
MP,EX,186,7179.2889749499
MP,NUXY,186,0.30

!*---------------MATERIAL 187 (Used by 14 elements)------------------
MP,EX,187,7217.71273967936
MP,NUXY,187,0.30

!*---------------MATERIAL 188 (Used by 23 elements)------------------
MP,EX,188,7256.13650440882
MP,NUXY,188,0.30

!*---------------MATERIAL 189 (Used by 18 elements)------------------
MP,EX,189,7294.56026913828
MP,NUXY,189,0.30

!*---------------MATERIAL 190 (Used by 14 elements)------------------
MP,EX,190,7332.98403386774
MP,NUXY,190,0.30

!*---------------MATERIAL 191 (Used by 24 elements)------------------
MP,EX,191,7371.40779859719
MP,NUXY,191,0.30

!*---------------MATERIAL 192 (Used by 20 elements)------------------
MP,EX,192,7409.83156332665
MP,NUXY,192,0.30

!*---------------MATERIAL 193 (Used by 19 elements)------------------
MP,EX,193,7448.25532805611
MP,NUXY,193,0.30

!*---------------MATERIAL 194 (Used by 26 elements)------------------
MP,EX,194,7486.67909278557
MP,NUXY,194,0.30

!*---------------MATERIAL 195 (Used by 15 elements)------------------
MP,EX,195,7525.10285751503
MP,NUXY,195,0.30

!*---------------MATERIAL 196 (Used by 12 elements)------------------
MP,EX,196,7563.52662224449
MP,NUXY,196,0.30

!*---------------MATERIAL 197 (Used by 13 elements)------------------
MP,EX,197,7601.95038697395
MP,NUXY,197,0.30

!*---------------MATERIAL 198 (Used by 5 elements)------------------
MP,EX,198,7640.37415170341
MP,NUXY,198,0.30

!*---------------MATERIAL 199 (Used by 22 elements)------------------
MP,EX,199,7678.79791643287
MP,NUXY,199,0.30

!*---------------MATERIAL 200 (Used by 13 elements)------------------
MP,EX,200,7717.22168116232
MP,NUXY,200,0.30

!*---------------MATERIAL 201 (Used by 13 elements)------------------
MP,EX,201,7755.64544589178
MP,NUXY,201,0.30

!*---------------MATERIAL 202 (Used by 10 elements)------------------
MP,EX,202,7794.06921062124
MP,NUXY,202,0.30

!*---------------MATERIAL 203 (Used by 17 elements)------------------
MP,EX,203,7832.4929753507
MP,NUXY,203,0.30

!*---------------MATERIAL 204 (Used by 17 elements)------------------
MP,EX,204,7870.91674008016
MP,NUXY,204,0.30

!*---------------MATERIAL 205 (Used by 17 elements)------------------
MP,EX,205,7909.34050480962
MP,NUXY,205,0.30

!*---------------MATERIAL 206 (Used by 14 elements)------------------
MP,EX,206,7947.76426953908
MP,NUXY,206,0.30

!*---------------MATERIAL 207 (Used by 13 elements)------------------
MP,EX,207,7986.18803426854
MP,NUXY,207,0.30

!*---------------MATERIAL 208 (Used by 11 elements)------------------
MP,EX,208,8024.611798998
MP,NUXY,208,0.30

!*---------------MATERIAL 209 (Used by 10 elements)------------------
MP,EX,209,8063.03556372745
MP,NUXY,209,0.30

!*---------------MATERIAL 210 (Used by 16 elements)------------------
MP,EX,210,8101.45932845691
MP,NUXY,210,0.30

!*---------------MATERIAL 211 (Used by 16 elements)------------------
MP,EX,211,8139.88309318637
MP,NUXY,211,0.30

!*---------------MATERIAL 212 (Used by 13 elements)------------------
MP,EX,212,8178.30685791583
MP,NUXY,212,0.30

!*---------------MATERIAL 213 (Used by 6 elements)------------------
MP,EX,213,8216.73062264529
MP,NUXY,213,0.30

!*---------------MATERIAL 214 (Used by 17 elements)------------------
MP,EX,214,8255.15438737475
MP,NUXY,214,0.30

!*---------------MATERIAL 215 (Used by 11 elements)------------------
MP,EX,215,8293.57815210421
MP,NUXY,215,0.30

!*---------------MATERIAL 216 (Used by 18 elements)------------------
MP,EX,216,8332.00191683367
MP,NUXY,216,0.30

!*---------------MATERIAL 217 (Used by 15 elements)------------------
MP,EX,217,8370.42568156313
MP,NUXY,217,0.30

!*---------------MATERIAL 218 (Used by 11 elements)------------------
MP,EX,218,8408.84944629258
MP,NUXY,218,0.30

!*---------------MATERIAL 219 (Used by 13 elements)------------------
MP,EX,219,8447.27321102204
MP,NUXY,219,0.30

!*---------------MATERIAL 220 (Used by 13 elements)------------------
MP,EX,220,8485.6969757515
MP,NUXY,220,0.30

!*---------------MATERIAL 221 (Used by 5 elements)------------------
MP,EX,221,8524.12074048096
MP,NUXY,221,0.30

!*---------------MATERIAL 222 (Used by 9 elements)------------------
MP,EX,222,8562.54450521042
MP,NUXY,222,0.30

!*---------------MATERIAL 223 (Used by 6 elements)------------------
MP,EX,223,8600.96826993988
MP,NUXY,223,0.30

!*---------------MATERIAL 224 (Used by 15 elements)------------------
MP,EX,224,8639.39203466934
MP,NUXY,224,0.30

!*---------------MATERIAL 225 (Used by 13 elements)------------------
MP,EX,225,8677.8157993988
MP,NUXY,225,0.30

!*---------------MATERIAL 226 (Used by 14 elements)------------------
MP,EX,226,8716.23956412826
MP,NUXY,226,0.30

!*---------------MATERIAL 227 (Used by 18 elements)------------------
MP,EX,227,8754.66332885771
MP,NUXY,227,0.30

!*---------------MATERIAL 228 (Used by 15 elements)------------------
MP,EX,228,8793.08709358717
MP,NUXY,228,0.30

!*---------------MATERIAL 229 (Used by 7 elements)------------------
MP,EX,229,8831.51085831663
MP,NUXY,229,0.30

!*---------------MATERIAL 230 (Used by 13 elements)------------------
MP,EX,230,8869.93462304609
MP,NUXY,230,0.30

!*---------------MATERIAL 231 (Used by 7 elements)------------------
MP,EX,231,8908.35838777555
MP,NUXY,231,0.30

!*---------------MATERIAL 232 (Used by 4 elements)------------------
MP,EX,232,8946.78215250501
MP,NUXY,232,0.30

!*---------------MATERIAL 233 (Used by 14 elements)------------------
MP,EX,233,8985.20591723447
MP,NUXY,233,0.30

!*---------------MATERIAL 234 (Used by 6 elements)------------------
MP,EX,234,9023.62968196393
MP,NUXY,234,0.30

!*---------------MATERIAL 235 (Used by 15 elements)------------------
MP,EX,235,9062.05344669339
MP,NUXY,235,0.30

!*---------------MATERIAL 236 (Used by 10 elements)------------------
MP,EX,236,9100.47721142285
MP,NUXY,236,0.30

!*---------------MATERIAL 237 (Used by 13 elements)------------------
MP,EX,237,9138.9009761523
MP,NUXY,237,0.30

!*---------------MATERIAL 238 (Used by 13 elements)------------------
MP,EX,238,9177.32474088176
MP,NUXY,238,0.30

!*---------------MATERIAL 239 (Used by 11 elements)------------------
MP,EX,239,9215.74850561122
MP,NUXY,239,0.30

!*---------------MATERIAL 240 (Used by 14 elements)------------------
MP,EX,240,9254.17227034068
MP,NUXY,240,0.30

!*---------------MATERIAL 241 (Used by 9 elements)------------------
MP,EX,241,9292.59603507014
MP,NUXY,241,0.30

!*---------------MATERIAL 242 (Used by 12 elements)------------------
MP,EX,242,9331.0197997996
MP,NUXY,242,0.30

!*---------------MATERIAL 243 (Used by 21 elements)------------------
MP,EX,243,9369.44356452906
MP,NUXY,243,0.30

!*---------------MATERIAL 244 (Used by 10 elements)------------------
MP,EX,244,9407.86732925852
MP,NUXY,244,0.30

!*---------------MATERIAL 245 (Used by 10 elements)------------------
MP,EX,245,9446.29109398797
MP,NUXY,245,0.30

!*---------------MATERIAL 246 (Used by 12 elements)------------------
MP,EX,246,9484.71485871743
MP,NUXY,246,0.30

!*---------------MATERIAL 247 (Used by 12 elements)------------------
MP,EX,247,9523.13862344689
MP,NUXY,247,0.30

!*---------------MATERIAL 248 (Used by 14 elements)------------------
MP,EX,248,9561.56238817635
MP,NUXY,248,0.30

!*---------------MATERIAL 249 (Used by 8 elements)------------------
MP,EX,249,9599.98615290581
MP,NUXY,249,0.30

!*---------------MATERIAL 250 (Used by 16 elements)------------------
MP,EX,250,9638.40991763527
MP,NUXY,250,0.30

!*---------------MATERIAL 251 (Used by 14 elements)------------------
MP,EX,251,9676.83368236473
MP,NUXY,251,0.30

!*---------------MATERIAL 252 (Used by 10 elements)------------------
MP,EX,252,9715.25744709419
MP,NUXY,252,0.30

!*---------------MATERIAL 253 (Used by 11 elements)------------------
MP,EX,253,9753.68121182365
MP,NUXY,253,0.30

!*---------------MATERIAL 254 (Used by 13 elements)------------------
MP,EX,254,9792.10497655311
MP,NUXY,254,0.30

!*---------------MATERIAL 255 (Used by 13 elements)------------------
MP,EX,255,9830.52874128256
MP,NUXY,255,0.30

!*---------------MATERIAL 256 (Used by 8 elements)------------------
MP,EX,256,9868.95250601202
MP,NUXY,256,0.30

!*---------------MATERIAL 257 (Used by 12 elements)------------------
MP,EX,257,9907.37627074148
MP,NUXY,257,0.30

!*---------------MATERIAL 258 (Used by 12 elements)------------------
MP,EX,258,9945.80003547094
MP,NUXY,258,0.30

!*---------------MATERIAL 259 (Used by 11 elements)------------------
MP,EX,259,9984.2238002004
MP,NUXY,259,0.30

!*---------------MATERIAL 260 (Used by 10 elements)------------------
MP,EX,260,10022.6475649299
MP,NUXY,260,0.30

!*---------------MATERIAL 261 (Used by 6 elements)------------------
MP,EX,261,10061.0713296593
MP,NUXY,261,0.30

!*---------------MATERIAL 262 (Used by 17 elements)------------------
MP,EX,262,10099.4950943888
MP,NUXY,262,0.30

!*---------------MATERIAL 263 (Used by 11 elements)------------------
MP,EX,263,10137.9188591182
MP,NUXY,263,0.30

!*---------------MATERIAL 264 (Used by 7 elements)------------------
MP,EX,264,10176.3426238477
MP,NUXY,264,0.30

!*---------------MATERIAL 265 (Used by 7 elements)------------------
MP,EX,265,10214.7663885772
MP,NUXY,265,0.30

!*---------------MATERIAL 266 (Used by 4 elements)------------------
MP,EX,266,10253.1901533066
MP,NUXY,266,0.30

!*---------------MATERIAL 267 (Used by 11 elements)------------------
MP,EX,267,10291.6139180361
MP,NUXY,267,0.30

!*---------------MATERIAL 268 (Used by 9 elements)------------------
MP,EX,268,10330.0376827655
MP,NUXY,268,0.30

!*---------------MATERIAL 269 (Used by 9 elements)------------------
MP,EX,269,10368.461447495
MP,NUXY,269,0.30

!*---------------MATERIAL 270 (Used by 16 elements)------------------
MP,EX,270,10406.8852122244
MP,NUXY,270,0.30

!*---------------MATERIAL 271 (Used by 13 elements)------------------
MP,EX,271,10445.3089769539
MP,NUXY,271,0.30

!*---------------MATERIAL 272 (Used by 10 elements)------------------
MP,EX,272,10483.7327416834
MP,NUXY,272,0.30

!*---------------MATERIAL 273 (Used by 12 elements)------------------
MP,EX,273,10522.1565064128
MP,NUXY,273,0.30

!*---------------MATERIAL 274 (Used by 7 elements)------------------
MP,EX,274,10560.5802711423
MP,NUXY,274,0.30

!*---------------MATERIAL 275 (Used by 7 elements)------------------
MP,EX,275,10599.0040358717
MP,NUXY,275,0.30

!*---------------MATERIAL 276 (Used by 9 elements)------------------
MP,EX,276,10637.4278006012
MP,NUXY,276,0.30

!*---------------MATERIAL 277 (Used by 9 elements)------------------
MP,EX,277,10675.8515653307
MP,NUXY,277,0.30

!*---------------MATERIAL 278 (Used by 9 elements)------------------
MP,EX,278,10714.2753300601
MP,NUXY,278,0.30

!*---------------MATERIAL 279 (Used by 11 elements)------------------
MP,EX,279,10752.6990947896
MP,NUXY,279,0.30

!*---------------MATERIAL 280 (Used by 7 elements)------------------
MP,EX,280,10791.122859519
MP,NUXY,280,0.30

!*---------------MATERIAL 281 (Used by 12 elements)------------------
MP,EX,281,10829.5466242485
MP,NUXY,281,0.30

!*---------------MATERIAL 282 (Used by 12 elements)------------------
MP,EX,282,10867.970388978
MP,NUXY,282,0.30

!*---------------MATERIAL 283 (Used by 6 elements)------------------
MP,EX,283,10906.3941537074
MP,NUXY,283,0.30

!*---------------MATERIAL 284 (Used by 5 elements)------------------
MP,EX,284,10944.8179184369
MP,NUXY,284,0.30

!*---------------MATERIAL 285 (Used by 8 elements)------------------
MP,EX,285,10983.2416831663
MP,NUXY,285,0.30

!*---------------MATERIAL 286 (Used by 7 elements)------------------
MP,EX,286,11021.6654478958
MP,NUXY,286,0.30

!*---------------MATERIAL 287 (Used by 13 elements)------------------
MP,EX,287,11060.0892126253
MP,NUXY,287,0.30

!*---------------MATERIAL 288 (Used by 9 elements)------------------
MP,EX,288,11098.5129773547
MP,NUXY,288,0.30

!*---------------MATERIAL 289 (Used by 3 elements)------------------
MP,EX,289,11136.9367420842
MP,NUXY,289,0.30

!*---------------MATERIAL 290 (Used by 9 elements)------------------
MP,EX,290,11175.3605068136
MP,NUXY,290,0.30

!*---------------MATERIAL 291 (Used by 13 elements)------------------
MP,EX,291,11213.7842715431
MP,NUXY,291,0.30

!*---------------MATERIAL 292 (Used by 9 elements)------------------
MP,EX,292,11252.2080362725
MP,NUXY,292,0.30

!*---------------MATERIAL 293 (Used by 13 elements)------------------
MP,EX,293,11290.631801002
MP,NUXY,293,0.30

!*---------------MATERIAL 294 (Used by 10 elements)------------------
MP,EX,294,11329.0555657315
MP,NUXY,294,0.30

!*---------------MATERIAL 295 (Used by 5 elements)------------------
MP,EX,295,11367.4793304609
MP,NUXY,295,0.30

!*---------------MATERIAL 296 (Used by 8 elements)------------------
MP,EX,296,11405.9030951904
MP,NUXY,296,0.30

!*---------------MATERIAL 297 (Used by 10 elements)------------------
MP,EX,297,11444.3268599198
MP,NUXY,297,0.30

!*---------------MATERIAL 298 (Used by 4 elements)------------------
MP,EX,298,11482.7506246493
MP,NUXY,298,0.30

!*---------------MATERIAL 299 (Used by 10 elements)------------------
MP,EX,299,11521.1743893788
MP,NUXY,299,0.30

!*---------------MATERIAL 300 (Used by 9 elements)------------------
MP,EX,300,11559.5981541082
MP,NUXY,300,0.30

!*---------------MATERIAL 301 (Used by 11 elements)------------------
MP,EX,301,11598.0219188377
MP,NUXY,301,0.30

!*---------------MATERIAL 302 (Used by 6 elements)------------------
MP,EX,302,11636.4456835671
MP,NUXY,302,0.30

!*---------------MATERIAL 303 (Used by 14 elements)------------------
MP,EX,303,11674.8694482966
MP,NUXY,303,0.30

!*---------------MATERIAL 304 (Used by 10 elements)------------------
MP,EX,304,11713.2932130261
MP,NUXY,304,0.30

!*---------------MATERIAL 305 (Used by 1 elements)------------------
MP,EX,305,11751.7169777555
MP,NUXY,305,0.30

!*---------------MATERIAL 306 (Used by 16 elements)------------------
MP,EX,306,11790.140742485
MP,NUXY,306,0.30

!*---------------MATERIAL 307 (Used by 13 elements)------------------
MP,EX,307,11828.5645072144
MP,NUXY,307,0.30

!*---------------MATERIAL 308 (Used by 8 elements)------------------
MP,EX,308,11866.9882719439
MP,NUXY,308,0.30

!*---------------MATERIAL 309 (Used by 11 elements)------------------
MP,EX,309,11905.4120366733
MP,NUXY,309,0.30

!*---------------MATERIAL 310 (Used by 11 elements)------------------
MP,EX,310,11943.8358014028
MP,NUXY,310,0.30

!*---------------MATERIAL 311 (Used by 12 elements)------------------
MP,EX,311,11982.2595661323
MP,NUXY,311,0.30

!*---------------MATERIAL 312 (Used by 12 elements)------------------
MP,EX,312,12020.6833308617
MP,NUXY,312,0.30

!*---------------MATERIAL 313 (Used by 9 elements)------------------
MP,EX,313,12059.1070955912
MP,NUXY,313,0.30

!*---------------MATERIAL 314 (Used by 8 elements)------------------
MP,EX,314,12097.5308603206
MP,NUXY,314,0.30

!*---------------MATERIAL 315 (Used by 15 elements)------------------
MP,EX,315,12135.9546250501
MP,NUXY,315,0.30

!*---------------MATERIAL 316 (Used by 11 elements)------------------
MP,EX,316,12174.3783897796
MP,NUXY,316,0.30

!*---------------MATERIAL 317 (Used by 14 elements)------------------
MP,EX,317,12212.802154509
MP,NUXY,317,0.30

!*---------------MATERIAL 318 (Used by 14 elements)------------------
MP,EX,318,12251.2259192385
MP,NUXY,318,0.30

!*---------------MATERIAL 319 (Used by 9 elements)------------------
MP,EX,319,12289.6496839679
MP,NUXY,319,0.30

!*---------------MATERIAL 320 (Used by 6 elements)------------------
MP,EX,320,12328.0734486974
MP,NUXY,320,0.30

!*---------------MATERIAL 321 (Used by 10 elements)------------------
MP,EX,321,12366.4972134269
MP,NUXY,321,0.30

!*---------------MATERIAL 322 (Used by 7 elements)------------------
MP,EX,322,12404.9209781563
MP,NUXY,322,0.30

!*---------------MATERIAL 323 (Used by 18 elements)------------------
MP,EX,323,12443.3447428858
MP,NUXY,323,0.30

!*---------------MATERIAL 324 (Used by 11 elements)------------------
MP,EX,324,12481.7685076152
MP,NUXY,324,0.30

!*---------------MATERIAL 325 (Used by 6 elements)------------------
MP,EX,325,12520.1922723447
MP,NUXY,325,0.30

!*---------------MATERIAL 326 (Used by 8 elements)------------------
MP,EX,326,12558.6160370741
MP,NUXY,326,0.30

!*---------------MATERIAL 327 (Used by 10 elements)------------------
MP,EX,327,12597.0398018036
MP,NUXY,327,0.30

!*---------------MATERIAL 328 (Used by 7 elements)------------------
MP,EX,328,12635.4635665331
MP,NUXY,328,0.30

!*---------------MATERIAL 329 (Used by 9 elements)------------------
MP,EX,329,12673.8873312625
MP,NUXY,329,0.30

!*---------------MATERIAL 330 (Used by 7 elements)------------------
MP,EX,330,12712.311095992
MP,NUXY,330,0.30

!*---------------MATERIAL 331 (Used by 11 elements)------------------
MP,EX,331,12750.7348607214
MP,NUXY,331,0.30

!*---------------MATERIAL 332 (Used by 9 elements)------------------
MP,EX,332,12789.1586254509
MP,NUXY,332,0.30

!*---------------MATERIAL 333 (Used by 12 elements)------------------
MP,EX,333,12827.5823901804
MP,NUXY,333,0.30

!*---------------MATERIAL 334 (Used by 7 elements)------------------
MP,EX,334,12866.0061549098
MP,NUXY,334,0.30

!*---------------MATERIAL 335 (Used by 13 elements)------------------
MP,EX,335,12904.4299196393
MP,NUXY,335,0.30

!*---------------MATERIAL 336 (Used by 11 elements)------------------
MP,EX,336,12942.8536843687
MP,NUXY,336,0.30

!*---------------MATERIAL 337 (Used by 9 elements)------------------
MP,EX,337,12981.2774490982
MP,NUXY,337,0.30

!*---------------MATERIAL 338 (Used by 9 elements)------------------
MP,EX,338,13019.7012138277
MP,NUXY,338,0.30

!*---------------MATERIAL 339 (Used by 12 elements)------------------
MP,EX,339,13058.1249785571
MP,NUXY,339,0.30

!*---------------MATERIAL 340 (Used by 13 elements)------------------
MP,EX,340,13096.5487432866
MP,NUXY,340,0.30

!*---------------MATERIAL 341 (Used by 11 elements)------------------
MP,EX,341,13134.972508016
MP,NUXY,341,0.30

!*---------------MATERIAL 342 (Used by 6 elements)------------------
MP,EX,342,13173.3962727455
MP,NUXY,342,0.30

!*---------------MATERIAL 343 (Used by 9 elements)------------------
MP,EX,343,13211.8200374749
MP,NUXY,343,0.30

!*---------------MATERIAL 344 (Used by 13 elements)------------------
MP,EX,344,13250.2438022044
MP,NUXY,344,0.30

!*---------------MATERIAL 345 (Used by 6 elements)------------------
MP,EX,345,13288.6675669339
MP,NUXY,345,0.30

!*---------------MATERIAL 346 (Used by 12 elements)------------------
MP,EX,346,13327.0913316633
MP,NUXY,346,0.30

!*---------------MATERIAL 347 (Used by 6 elements)------------------
MP,EX,347,13365.5150963928
MP,NUXY,347,0.30

!*---------------MATERIAL 348 (Used by 11 elements)------------------
MP,EX,348,13403.9388611222
MP,NUXY,348,0.30

!*---------------MATERIAL 349 (Used by 7 elements)------------------
MP,EX,349,13442.3626258517
MP,NUXY,349,0.30

!*---------------MATERIAL 350 (Used by 6 elements)------------------
MP,EX,350,13480.7863905812
MP,NUXY,350,0.30

!*---------------MATERIAL 351 (Used by 7 elements)------------------
MP,EX,351,13519.2101553106
MP,NUXY,351,0.30

!*---------------MATERIAL 352 (Used by 7 elements)------------------
MP,EX,352,13557.6339200401
MP,NUXY,352,0.30

!*---------------MATERIAL 353 (Used by 13 elements)------------------
MP,EX,353,13596.0576847695
MP,NUXY,353,0.30

!*---------------MATERIAL 354 (Used by 7 elements)------------------
MP,EX,354,13634.481449499
MP,NUXY,354,0.30

!*---------------MATERIAL 355 (Used by 9 elements)------------------
MP,EX,355,13672.9052142285
MP,NUXY,355,0.30

!*---------------MATERIAL 356 (Used by 9 elements)------------------
MP,EX,356,13711.3289789579
MP,NUXY,356,0.30

!*---------------MATERIAL 357 (Used by 13 elements)------------------
MP,EX,357,13749.7527436874
MP,NUXY,357,0.30

!*---------------MATERIAL 358 (Used by 8 elements)------------------
MP,EX,358,13788.1765084168
MP,NUXY,358,0.30

!*---------------MATERIAL 359 (Used by 12 elements)------------------
MP,EX,359,13826.6002731463
MP,NUXY,359,0.30

!*---------------MATERIAL 360 (Used by 11 elements)------------------
MP,EX,360,13865.0240378758
MP,NUXY,360,0.30

!*---------------MATERIAL 361 (Used by 5 elements)------------------
MP,EX,361,13903.4478026052
MP,NUXY,361,0.30

!*---------------MATERIAL 362 (Used by 10 elements)------------------
MP,EX,362,13941.8715673347
MP,NUXY,362,0.30

!*---------------MATERIAL 363 (Used by 12 elements)------------------
MP,EX,363,13980.2953320641
MP,NUXY,363,0.30

!*---------------MATERIAL 364 (Used by 10 elements)------------------
MP,EX,364,14018.7190967936
MP,NUXY,364,0.30

!*---------------MATERIAL 365 (Used by 5 elements)------------------
MP,EX,365,14057.142861523
MP,NUXY,365,0.30

!*---------------MATERIAL 366 (Used by 11 elements)------------------
MP,EX,366,14095.5666262525
MP,NUXY,366,0.30

!*---------------MATERIAL 367 (Used by 14 elements)------------------
MP,EX,367,14133.990390982
MP,NUXY,367,0.30

!*---------------MATERIAL 368 (Used by 10 elements)------------------
MP,EX,368,14172.4141557114
MP,NUXY,368,0.30

!*---------------MATERIAL 369 (Used by 9 elements)------------------
MP,EX,369,14210.8379204409
MP,NUXY,369,0.30

!*---------------MATERIAL 370 (Used by 13 elements)------------------
MP,EX,370,14249.2616851703
MP,NUXY,370,0.30

!*---------------MATERIAL 371 (Used by 12 elements)------------------
MP,EX,371,14287.6854498998
MP,NUXY,371,0.30

!*---------------MATERIAL 372 (Used by 12 elements)------------------
MP,EX,372,14326.1092146293
MP,NUXY,372,0.30

!*---------------MATERIAL 373 (Used by 10 elements)------------------
MP,EX,373,14364.5329793587
MP,NUXY,373,0.30

!*---------------MATERIAL 374 (Used by 8 elements)------------------
MP,EX,374,14402.9567440882
MP,NUXY,374,0.30

!*---------------MATERIAL 375 (Used by 15 elements)------------------
MP,EX,375,14441.3805088176
MP,NUXY,375,0.30

!*---------------MATERIAL 376 (Used by 13 elements)------------------
MP,EX,376,14479.8042735471
MP,NUXY,376,0.30

!*---------------MATERIAL 377 (Used by 9 elements)------------------
MP,EX,377,14518.2280382766
MP,NUXY,377,0.30

!*---------------MATERIAL 378 (Used by 10 elements)------------------
MP,EX,378,14556.651803006
MP,NUXY,378,0.30

!*---------------MATERIAL 379 (Used by 6 elements)------------------
MP,EX,379,14595.0755677355
MP,NUXY,379,0.30

!*---------------MATERIAL 380 (Used by 5 elements)------------------
MP,EX,380,14633.4993324649
MP,NUXY,380,0.30

!*---------------MATERIAL 381 (Used by 17 elements)------------------
MP,EX,381,14671.9230971944
MP,NUXY,381,0.30

!*---------------MATERIAL 382 (Used by 12 elements)------------------
MP,EX,382,14710.3468619238
MP,NUXY,382,0.30

!*---------------MATERIAL 383 (Used by 5 elements)------------------
MP,EX,383,14748.7706266533
MP,NUXY,383,0.30

!*---------------MATERIAL 384 (Used by 14 elements)------------------
MP,EX,384,14787.1943913828
MP,NUXY,384,0.30

!*---------------MATERIAL 385 (Used by 13 elements)------------------
MP,EX,385,14825.6181561122
MP,NUXY,385,0.30

!*---------------MATERIAL 386 (Used by 14 elements)------------------
MP,EX,386,14864.0419208417
MP,NUXY,386,0.30

!*---------------MATERIAL 387 (Used by 17 elements)------------------
MP,EX,387,14902.4656855711
MP,NUXY,387,0.30

!*---------------MATERIAL 388 (Used by 10 elements)------------------
MP,EX,388,14940.8894503006
MP,NUXY,388,0.30

!*---------------MATERIAL 389 (Used by 15 elements)------------------
MP,EX,389,14979.3132150301
MP,NUXY,389,0.30

!*---------------MATERIAL 390 (Used by 8 elements)------------------
MP,EX,390,15017.7369797595
MP,NUXY,390,0.30

!*---------------MATERIAL 391 (Used by 12 elements)------------------
MP,EX,391,15056.160744489
MP,NUXY,391,0.30

!*---------------MATERIAL 392 (Used by 6 elements)------------------
MP,EX,392,15094.5845092184
MP,NUXY,392,0.30

!*---------------MATERIAL 393 (Used by 9 elements)------------------
MP,EX,393,15133.0082739479
MP,NUXY,393,0.30

!*---------------MATERIAL 394 (Used by 12 elements)------------------
MP,EX,394,15171.4320386774
MP,NUXY,394,0.30

!*---------------MATERIAL 395 (Used by 18 elements)------------------
MP,EX,395,15209.8558034068
MP,NUXY,395,0.30

!*---------------MATERIAL 396 (Used by 19 elements)------------------
MP,EX,396,15248.2795681363
MP,NUXY,396,0.30

!*---------------MATERIAL 397 (Used by 11 elements)------------------
MP,EX,397,15286.7033328657
MP,NUXY,397,0.30

!*---------------MATERIAL 398 (Used by 10 elements)------------------
MP,EX,398,15325.1270975952
MP,NUXY,398,0.30

!*---------------MATERIAL 399 (Used by 16 elements)------------------
MP,EX,399,15363.5508623246
MP,NUXY,399,0.30

!*---------------MATERIAL 400 (Used by 17 elements)------------------
MP,EX,400,15401.9746270541
MP,NUXY,400,0.30

!*---------------MATERIAL 401 (Used by 10 elements)------------------
MP,EX,401,15440.3983917836
MP,NUXY,401,0.30

!*---------------MATERIAL 402 (Used by 9 elements)------------------
MP,EX,402,15478.822156513
MP,NUXY,402,0.30

!*---------------MATERIAL 403 (Used by 6 elements)------------------
MP,EX,403,15517.2459212425
MP,NUXY,403,0.30

!*---------------MATERIAL 404 (Used by 11 elements)------------------
MP,EX,404,15555.6696859719
MP,NUXY,404,0.30

!*---------------MATERIAL 405 (Used by 8 elements)------------------
MP,EX,405,15594.0934507014
MP,NUXY,405,0.30

!*---------------MATERIAL 406 (Used by 6 elements)------------------
MP,EX,406,15632.5172154309
MP,NUXY,406,0.30

!*---------------MATERIAL 407 (Used by 12 elements)------------------
MP,EX,407,15670.9409801603
MP,NUXY,407,0.30

!*---------------MATERIAL 408 (Used by 7 elements)------------------
MP,EX,408,15709.3647448898
MP,NUXY,408,0.30

!*---------------MATERIAL 409 (Used by 13 elements)------------------
MP,EX,409,15747.7885096192
MP,NUXY,409,0.30

!*---------------MATERIAL 410 (Used by 15 elements)------------------
MP,EX,410,15786.2122743487
MP,NUXY,410,0.30

!*---------------MATERIAL 411 (Used by 13 elements)------------------
MP,EX,411,15824.6360390782
MP,NUXY,411,0.30

!*---------------MATERIAL 412 (Used by 11 elements)------------------
MP,EX,412,15863.0598038076
MP,NUXY,412,0.30

!*---------------MATERIAL 413 (Used by 12 elements)------------------
MP,EX,413,15901.4835685371
MP,NUXY,413,0.30

!*---------------MATERIAL 414 (Used by 8 elements)------------------
MP,EX,414,15939.9073332665
MP,NUXY,414,0.30

!*---------------MATERIAL 415 (Used by 18 elements)------------------
MP,EX,415,15978.331097996
MP,NUXY,415,0.30

!*---------------MATERIAL 416 (Used by 11 elements)------------------
MP,EX,416,16016.7548627254
MP,NUXY,416,0.30

!*---------------MATERIAL 417 (Used by 18 elements)------------------
MP,EX,417,16055.1786274549
MP,NUXY,417,0.30

!*---------------MATERIAL 418 (Used by 10 elements)------------------
MP,EX,418,16093.6023921844
MP,NUXY,418,0.30

!*---------------MATERIAL 419 (Used by 13 elements)------------------
MP,EX,419,16132.0261569138
MP,NUXY,419,0.30

!*---------------MATERIAL 420 (Used by 11 elements)------------------
MP,EX,420,16170.4499216433
MP,NUXY,420,0.30

!*---------------MATERIAL 421 (Used by 15 elements)------------------
MP,EX,421,16208.8736863727
MP,NUXY,421,0.30

!*---------------MATERIAL 422 (Used by 9 elements)------------------
MP,EX,422,16247.2974511022
MP,NUXY,422,0.30

!*---------------MATERIAL 423 (Used by 11 elements)------------------
MP,EX,423,16285.7212158317
MP,NUXY,423,0.30

!*---------------MATERIAL 424 (Used by 8 elements)------------------
MP,EX,424,16324.1449805611
MP,NUXY,424,0.30

!*---------------MATERIAL 425 (Used by 11 elements)------------------
MP,EX,425,16362.5687452906
MP,NUXY,425,0.30

!*---------------MATERIAL 426 (Used by 10 elements)------------------
MP,EX,426,16400.99251002
MP,NUXY,426,0.30

!*---------------MATERIAL 427 (Used by 10 elements)------------------
MP,EX,427,16439.4162747495
MP,NUXY,427,0.30

!*---------------MATERIAL 428 (Used by 10 elements)------------------
MP,EX,428,16477.840039479
MP,NUXY,428,0.30

!*---------------MATERIAL 429 (Used by 14 elements)------------------
MP,EX,429,16516.2638042084
MP,NUXY,429,0.30

!*---------------MATERIAL 430 (Used by 10 elements)------------------
MP,EX,430,16554.6875689379
MP,NUXY,430,0.30

!*---------------MATERIAL 431 (Used by 6 elements)------------------
MP,EX,431,16593.1113336673
MP,NUXY,431,0.30

!*---------------MATERIAL 432 (Used by 9 elements)------------------
MP,EX,432,16631.5350983968
MP,NUXY,432,0.30

!*---------------MATERIAL 433 (Used by 13 elements)------------------
MP,EX,433,16669.9588631263
MP,NUXY,433,0.30

!*---------------MATERIAL 434 (Used by 11 elements)------------------
MP,EX,434,16708.3826278557
MP,NUXY,434,0.30

!*---------------MATERIAL 435 (Used by 11 elements)------------------
MP,EX,435,16746.8063925852
MP,NUXY,435,0.30

!*---------------MATERIAL 436 (Used by 3 elements)------------------
MP,EX,436,16785.2301573146
MP,NUXY,436,0.30

!*---------------MATERIAL 437 (Used by 11 elements)------------------
MP,EX,437,16823.6539220441
MP,NUXY,437,0.30

!*---------------MATERIAL 438 (Used by 9 elements)------------------
MP,EX,438,16862.0776867735
MP,NUXY,438,0.30

!*---------------MATERIAL 439 (Used by 8 elements)------------------
MP,EX,439,16900.501451503
MP,NUXY,439,0.30

!*---------------MATERIAL 440 (Used by 5 elements)------------------
MP,EX,440,16938.9252162325
MP,NUXY,440,0.30

!*---------------MATERIAL 441 (Used by 4 elements)------------------
MP,EX,441,16977.3489809619
MP,NUXY,441,0.30

!*---------------MATERIAL 442 (Used by 7 elements)------------------
MP,EX,442,17015.7727456914
MP,NUXY,442,0.30

!*---------------MATERIAL 443 (Used by 16 elements)------------------
MP,EX,443,17054.1965104208
MP,NUXY,443,0.30

!*---------------MATERIAL 444 (Used by 7 elements)------------------
MP,EX,444,17092.6202751503
MP,NUXY,444,0.30

!*---------------MATERIAL 445 (Used by 9 elements)------------------
MP,EX,445,17131.0440398798
MP,NUXY,445,0.30

!*---------------MATERIAL 446 (Used by 11 elements)------------------
MP,EX,446,17169.4678046092
MP,NUXY,446,0.30

!*---------------MATERIAL 447 (Used by 5 elements)------------------
MP,EX,447,17207.8915693387
MP,NUXY,447,0.30

!*---------------MATERIAL 448 (Used by 6 elements)------------------
MP,EX,448,17246.3153340681
MP,NUXY,448,0.30

!*---------------MATERIAL 449 (Used by 8 elements)------------------
MP,EX,449,17284.7390987976
MP,NUXY,449,0.30

!*---------------MATERIAL 450 (Used by 6 elements)------------------
MP,EX,450,17323.1628635271
MP,NUXY,450,0.30

!*---------------MATERIAL 451 (Used by 6 elements)------------------
MP,EX,451,17361.5866282565
MP,NUXY,451,0.30

!*---------------MATERIAL 452 (Used by 4 elements)------------------
MP,EX,452,17400.010392986
MP,NUXY,452,0.30

!*---------------MATERIAL 453 (Used by 13 elements)------------------
MP,EX,453,17438.4341577154
MP,NUXY,453,0.30

!*---------------MATERIAL 454 (Used by 12 elements)------------------
MP,EX,454,17476.8579224449
MP,NUXY,454,0.30

!*---------------MATERIAL 455 (Used by 7 elements)------------------
MP,EX,455,17515.2816871743
MP,NUXY,455,0.30

!*---------------MATERIAL 456 (Used by 4 elements)------------------
MP,EX,456,17553.7054519038
MP,NUXY,456,0.30

!*---------------MATERIAL 457 (Used by 5 elements)------------------
MP,EX,457,17592.1292166333
MP,NUXY,457,0.30

!*---------------MATERIAL 458 (Used by 4 elements)------------------
MP,EX,458,17630.5529813627
MP,NUXY,458,0.30

!*---------------MATERIAL 459 (Used by 6 elements)------------------
MP,EX,459,17668.9767460922
MP,NUXY,459,0.30

!*---------------MATERIAL 460 (Used by 8 elements)------------------
MP,EX,460,17707.4005108216
MP,NUXY,460,0.30

!*---------------MATERIAL 461 (Used by 12 elements)------------------
MP,EX,461,17745.8242755511
MP,NUXY,461,0.30

!*---------------MATERIAL 462 (Used by 9 elements)------------------
MP,EX,462,17784.2480402806
MP,NUXY,462,0.30

!*---------------MATERIAL 463 (Used by 6 elements)------------------
MP,EX,463,17822.67180501
MP,NUXY,463,0.30

!*---------------MATERIAL 464 (Used by 5 elements)------------------
MP,EX,464,17861.0955697395
MP,NUXY,464,0.30

!*---------------MATERIAL 465 (Used by 6 elements)------------------
MP,EX,465,17899.5193344689
MP,NUXY,465,0.30

!*---------------MATERIAL 466 (Used by 10 elements)------------------
MP,EX,466,17937.9430991984
MP,NUXY,466,0.30

!*---------------MATERIAL 467 (Used by 5 elements)------------------
MP,EX,467,17976.3668639279
MP,NUXY,467,0.30

!*---------------MATERIAL 468 (Used by 5 elements)------------------
MP,EX,468,18014.7906286573
MP,NUXY,468,0.30

!*---------------MATERIAL 469 (Used by 4 elements)------------------
MP,EX,469,18053.2143933868
MP,NUXY,469,0.30

!*---------------MATERIAL 470 (Used by 1 elements)------------------
MP,EX,470,18091.6381581162
MP,NUXY,470,0.30

!*---------------MATERIAL 471 (Used by 4 elements)------------------
MP,EX,471,18130.0619228457
MP,NUXY,471,0.30

!*---------------MATERIAL 472 (Used by 7 elements)------------------
MP,EX,472,18168.4856875752
MP,NUXY,472,0.30

!*---------------MATERIAL 473 (Used by 4 elements)------------------
MP,EX,473,18206.9094523046
MP,NUXY,473,0.30

!*---------------MATERIAL 474 (Used by 4 elements)------------------
MP,EX,474,18245.3332170341
MP,NUXY,474,0.30

!*---------------MATERIAL 475 (Used by 4 elements)------------------
MP,EX,475,18283.7569817635
MP,NUXY,475,0.30

!*---------------MATERIAL 476 (Used by 5 elements)------------------
MP,EX,476,18322.180746493
MP,NUXY,476,0.30

!*---------------MATERIAL 477 (Used by 6 elements)------------------
MP,EX,477,18360.6045112224
MP,NUXY,477,0.30

!*---------------MATERIAL 478 (Used by 3 elements)------------------
MP,EX,478,18399.0282759519
MP,NUXY,478,0.30

!*---------------MATERIAL 479 (Used by 3 elements)------------------
MP,EX,479,18437.4520406814
MP,NUXY,479,0.30

!*---------------MATERIAL 480 (Used by 4 elements)------------------
MP,EX,480,18475.8758054108
MP,NUXY,480,0.30

!*---------------MATERIAL 481 (Used by 1 elements)------------------
MP,EX,481,18514.2995701403
MP,NUXY,481,0.30

!*---------------MATERIAL 482 (Used by 2 elements)------------------
MP,EX,482,18552.7233348697
MP,NUXY,482,0.30

!*---------------MATERIAL 483 (Used by 3 elements)------------------
MP,EX,483,18591.1470995992
MP,NUXY,483,0.30

!*---------------MATERIAL 484 (Used by 2 elements)------------------
MP,EX,484,18629.5708643287
MP,NUXY,484,0.30

!*---------------MATERIAL 485 (Used by 0 elements)------------------
MP,EX,485,18667.9946290581
MP,NUXY,485,0.30

!*---------------MATERIAL 486 (Used by 1 elements)------------------
MP,EX,486,18706.4183937876
MP,NUXY,486,0.30

!*---------------MATERIAL 487 (Used by 0 elements)------------------
MP,EX,487,18744.842158517
MP,NUXY,487,0.30

!*---------------MATERIAL 488 (Used by 0 elements)------------------
MP,EX,488,18783.2659232465
MP,NUXY,488,0.30

!*---------------MATERIAL 489 (Used by 1 elements)------------------
MP,EX,489,18821.689687976
MP,NUXY,489,0.30

!*---------------MATERIAL 490 (Used by 1 elements)------------------
MP,EX,490,18860.1134527054
MP,NUXY,490,0.30

!*---------------MATERIAL 491 (Used by 2 elements)------------------
MP,EX,491,18898.5372174349
MP,NUXY,491,0.30

!*---------------MATERIAL 492 (Used by 0 elements)------------------
MP,EX,492,18936.9609821643
MP,NUXY,492,0.30

!*---------------MATERIAL 493 (Used by 1 elements)------------------
MP,EX,493,18975.3847468938
MP,NUXY,493,0.30

!*---------------MATERIAL 494 (Used by 0 elements)------------------
MP,EX,494,19013.8085116232
MP,NUXY,494,0.30

!*---------------MATERIAL 495 (Used by 1 elements)------------------
MP,EX,495,19052.2322763527
MP,NUXY,495,0.30

!*---------------MATERIAL 496 (Used by 0 elements)------------------
MP,EX,496,19090.6560410822
MP,NUXY,496,0.30

!*---------------MATERIAL 497 (Used by 0 elements)------------------
MP,EX,497,19129.0798058116
MP,NUXY,497,0.30

!*---------------MATERIAL 498 (Used by 0 elements)------------------
MP,EX,498,19167.5035705411
MP,NUXY,498,0.30

!*---------------MATERIAL 499 (Used by 0 elements)------------------
MP,EX,499,19205.9273352705
MP,NUXY,499,0.30

!*---------------MATERIAL 500 (Used by 1 elements)------------------
MP,EX,500,19244.3511
MP,NUXY,500,0.30
