/PREP7
ALLSEL,ALL
*MSG,INFO
ASSIGNING MATERIAL PROPERTIES. PLEASE WAIT...
/NOPR         !Disable output

!These material properties defined in Matlab!

!*---------------MATERIAL 1 (Used by 6 elements)------------------
MP,EX,1,70.8925
MP,NUXY,1,0.30

!*---------------MATERIAL 2 (Used by 35 elements)------------------
MP,EX,2,112.00418737475
MP,NUXY,2,0.30

!*---------------MATERIAL 3 (Used by 51 elements)------------------
MP,EX,3,153.115874749499
MP,NUXY,3,0.30

!*---------------MATERIAL 4 (Used by 54 elements)------------------
MP,EX,4,194.227562124248
MP,NUXY,4,0.30

!*---------------MATERIAL 5 (Used by 41 elements)------------------
MP,EX,5,235.339249498998
MP,NUXY,5,0.30

!*---------------MATERIAL 6 (Used by 40 elements)------------------
MP,EX,6,276.450936873747
MP,NUXY,6,0.30

!*---------------MATERIAL 7 (Used by 25 elements)------------------
MP,EX,7,317.562624248497
MP,NUXY,7,0.30

!*---------------MATERIAL 8 (Used by 42 elements)------------------
MP,EX,8,358.674311623247
MP,NUXY,8,0.30

!*---------------MATERIAL 9 (Used by 42 elements)------------------
MP,EX,9,399.785998997996
MP,NUXY,9,0.30

!*---------------MATERIAL 10 (Used by 50 elements)------------------
MP,EX,10,440.897686372745
MP,NUXY,10,0.30

!*---------------MATERIAL 11 (Used by 66 elements)------------------
MP,EX,11,482.009373747495
MP,NUXY,11,0.30

!*---------------MATERIAL 12 (Used by 80 elements)------------------
MP,EX,12,523.121061122244
MP,NUXY,12,0.30

!*---------------MATERIAL 13 (Used by 93 elements)------------------
MP,EX,13,564.232748496994
MP,NUXY,13,0.30

!*---------------MATERIAL 14 (Used by 86 elements)------------------
MP,EX,14,605.344435871743
MP,NUXY,14,0.30

!*---------------MATERIAL 15 (Used by 95 elements)------------------
MP,EX,15,646.456123246493
MP,NUXY,15,0.30

!*---------------MATERIAL 16 (Used by 114 elements)------------------
MP,EX,16,687.567810621243
MP,NUXY,16,0.30

!*---------------MATERIAL 17 (Used by 115 elements)------------------
MP,EX,17,728.679497995992
MP,NUXY,17,0.30

!*---------------MATERIAL 18 (Used by 107 elements)------------------
MP,EX,18,769.791185370742
MP,NUXY,18,0.30

!*---------------MATERIAL 19 (Used by 120 elements)------------------
MP,EX,19,810.902872745491
MP,NUXY,19,0.30

!*---------------MATERIAL 20 (Used by 113 elements)------------------
MP,EX,20,852.014560120241
MP,NUXY,20,0.30

!*---------------MATERIAL 21 (Used by 137 elements)------------------
MP,EX,21,893.12624749499
MP,NUXY,21,0.30

!*---------------MATERIAL 22 (Used by 120 elements)------------------
MP,EX,22,934.237934869739
MP,NUXY,22,0.30

!*---------------MATERIAL 23 (Used by 125 elements)------------------
MP,EX,23,975.349622244489
MP,NUXY,23,0.30

!*---------------MATERIAL 24 (Used by 155 elements)------------------
MP,EX,24,1016.46130961924
MP,NUXY,24,0.30

!*---------------MATERIAL 25 (Used by 114 elements)------------------
MP,EX,25,1057.57299699399
MP,NUXY,25,0.30

!*---------------MATERIAL 26 (Used by 125 elements)------------------
MP,EX,26,1098.68468436874
MP,NUXY,26,0.30

!*---------------MATERIAL 27 (Used by 138 elements)------------------
MP,EX,27,1139.79637174349
MP,NUXY,27,0.30

!*---------------MATERIAL 28 (Used by 136 elements)------------------
MP,EX,28,1180.90805911824
MP,NUXY,28,0.30

!*---------------MATERIAL 29 (Used by 131 elements)------------------
MP,EX,29,1222.01974649299
MP,NUXY,29,0.30

!*---------------MATERIAL 30 (Used by 131 elements)------------------
MP,EX,30,1263.13143386774
MP,NUXY,30,0.30

!*---------------MATERIAL 31 (Used by 138 elements)------------------
MP,EX,31,1304.24312124248
MP,NUXY,31,0.30

!*---------------MATERIAL 32 (Used by 162 elements)------------------
MP,EX,32,1345.35480861723
MP,NUXY,32,0.30

!*---------------MATERIAL 33 (Used by 157 elements)------------------
MP,EX,33,1386.46649599198
MP,NUXY,33,0.30

!*---------------MATERIAL 34 (Used by 149 elements)------------------
MP,EX,34,1427.57818336673
MP,NUXY,34,0.30

!*---------------MATERIAL 35 (Used by 192 elements)------------------
MP,EX,35,1468.68987074148
MP,NUXY,35,0.30

!*---------------MATERIAL 36 (Used by 172 elements)------------------
MP,EX,36,1509.80155811623
MP,NUXY,36,0.30

!*---------------MATERIAL 37 (Used by 181 elements)------------------
MP,EX,37,1550.91324549098
MP,NUXY,37,0.30

!*---------------MATERIAL 38 (Used by 159 elements)------------------
MP,EX,38,1592.02493286573
MP,NUXY,38,0.30

!*---------------MATERIAL 39 (Used by 159 elements)------------------
MP,EX,39,1633.13662024048
MP,NUXY,39,0.30

!*---------------MATERIAL 40 (Used by 157 elements)------------------
MP,EX,40,1674.24830761523
MP,NUXY,40,0.30

!*---------------MATERIAL 41 (Used by 177 elements)------------------
MP,EX,41,1715.35999498998
MP,NUXY,41,0.30

!*---------------MATERIAL 42 (Used by 156 elements)------------------
MP,EX,42,1756.47168236473
MP,NUXY,42,0.30

!*---------------MATERIAL 43 (Used by 168 elements)------------------
MP,EX,43,1797.58336973948
MP,NUXY,43,0.30

!*---------------MATERIAL 44 (Used by 163 elements)------------------
MP,EX,44,1838.69505711423
MP,NUXY,44,0.30

!*---------------MATERIAL 45 (Used by 177 elements)------------------
MP,EX,45,1879.80674448898
MP,NUXY,45,0.30

!*---------------MATERIAL 46 (Used by 181 elements)------------------
MP,EX,46,1920.91843186373
MP,NUXY,46,0.30

!*---------------MATERIAL 47 (Used by 179 elements)------------------
MP,EX,47,1962.03011923848
MP,NUXY,47,0.30

!*---------------MATERIAL 48 (Used by 150 elements)------------------
MP,EX,48,2003.14180661323
MP,NUXY,48,0.30

!*---------------MATERIAL 49 (Used by 174 elements)------------------
MP,EX,49,2044.25349398798
MP,NUXY,49,0.30

!*---------------MATERIAL 50 (Used by 156 elements)------------------
MP,EX,50,2085.36518136273
MP,NUXY,50,0.30

!*---------------MATERIAL 51 (Used by 160 elements)------------------
MP,EX,51,2126.47686873747
MP,NUXY,51,0.30

!*---------------MATERIAL 52 (Used by 144 elements)------------------
MP,EX,52,2167.58855611222
MP,NUXY,52,0.30

!*---------------MATERIAL 53 (Used by 144 elements)------------------
MP,EX,53,2208.70024348697
MP,NUXY,53,0.30

!*---------------MATERIAL 54 (Used by 146 elements)------------------
MP,EX,54,2249.81193086172
MP,NUXY,54,0.30

!*---------------MATERIAL 55 (Used by 163 elements)------------------
MP,EX,55,2290.92361823647
MP,NUXY,55,0.30

!*---------------MATERIAL 56 (Used by 133 elements)------------------
MP,EX,56,2332.03530561122
MP,NUXY,56,0.30

!*---------------MATERIAL 57 (Used by 134 elements)------------------
MP,EX,57,2373.14699298597
MP,NUXY,57,0.30

!*---------------MATERIAL 58 (Used by 125 elements)------------------
MP,EX,58,2414.25868036072
MP,NUXY,58,0.30

!*---------------MATERIAL 59 (Used by 144 elements)------------------
MP,EX,59,2455.37036773547
MP,NUXY,59,0.30

!*---------------MATERIAL 60 (Used by 130 elements)------------------
MP,EX,60,2496.48205511022
MP,NUXY,60,0.30

!*---------------MATERIAL 61 (Used by 128 elements)------------------
MP,EX,61,2537.59374248497
MP,NUXY,61,0.30

!*---------------MATERIAL 62 (Used by 129 elements)------------------
MP,EX,62,2578.70542985972
MP,NUXY,62,0.30

!*---------------MATERIAL 63 (Used by 113 elements)------------------
MP,EX,63,2619.81711723447
MP,NUXY,63,0.30

!*---------------MATERIAL 64 (Used by 115 elements)------------------
MP,EX,64,2660.92880460922
MP,NUXY,64,0.30

!*---------------MATERIAL 65 (Used by 163 elements)------------------
MP,EX,65,2702.04049198397
MP,NUXY,65,0.30

!*---------------MATERIAL 66 (Used by 116 elements)------------------
MP,EX,66,2743.15217935872
MP,NUXY,66,0.30

!*---------------MATERIAL 67 (Used by 139 elements)------------------
MP,EX,67,2784.26386673347
MP,NUXY,67,0.30

!*---------------MATERIAL 68 (Used by 134 elements)------------------
MP,EX,68,2825.37555410822
MP,NUXY,68,0.30

!*---------------MATERIAL 69 (Used by 120 elements)------------------
MP,EX,69,2866.48724148297
MP,NUXY,69,0.30

!*---------------MATERIAL 70 (Used by 127 elements)------------------
MP,EX,70,2907.59892885772
MP,NUXY,70,0.30

!*---------------MATERIAL 71 (Used by 119 elements)------------------
MP,EX,71,2948.71061623246
MP,NUXY,71,0.30

!*---------------MATERIAL 72 (Used by 133 elements)------------------
MP,EX,72,2989.82230360721
MP,NUXY,72,0.30

!*---------------MATERIAL 73 (Used by 116 elements)------------------
MP,EX,73,3030.93399098196
MP,NUXY,73,0.30

!*---------------MATERIAL 74 (Used by 102 elements)------------------
MP,EX,74,3072.04567835671
MP,NUXY,74,0.30

!*---------------MATERIAL 75 (Used by 130 elements)------------------
MP,EX,75,3113.15736573146
MP,NUXY,75,0.30

!*---------------MATERIAL 76 (Used by 117 elements)------------------
MP,EX,76,3154.26905310621
MP,NUXY,76,0.30

!*---------------MATERIAL 77 (Used by 92 elements)------------------
MP,EX,77,3195.38074048096
MP,NUXY,77,0.30

!*---------------MATERIAL 78 (Used by 96 elements)------------------
MP,EX,78,3236.49242785571
MP,NUXY,78,0.30

!*---------------MATERIAL 79 (Used by 105 elements)------------------
MP,EX,79,3277.60411523046
MP,NUXY,79,0.30

!*---------------MATERIAL 80 (Used by 87 elements)------------------
MP,EX,80,3318.71580260521
MP,NUXY,80,0.30

!*---------------MATERIAL 81 (Used by 82 elements)------------------
MP,EX,81,3359.82748997996
MP,NUXY,81,0.30

!*---------------MATERIAL 82 (Used by 92 elements)------------------
MP,EX,82,3400.93917735471
MP,NUXY,82,0.30

!*---------------MATERIAL 83 (Used by 96 elements)------------------
MP,EX,83,3442.05086472946
MP,NUXY,83,0.30

!*---------------MATERIAL 84 (Used by 88 elements)------------------
MP,EX,84,3483.16255210421
MP,NUXY,84,0.30

!*---------------MATERIAL 85 (Used by 79 elements)------------------
MP,EX,85,3524.27423947896
MP,NUXY,85,0.30

!*---------------MATERIAL 86 (Used by 80 elements)------------------
MP,EX,86,3565.38592685371
MP,NUXY,86,0.30

!*---------------MATERIAL 87 (Used by 93 elements)------------------
MP,EX,87,3606.49761422846
MP,NUXY,87,0.30

!*---------------MATERIAL 88 (Used by 76 elements)------------------
MP,EX,88,3647.60930160321
MP,NUXY,88,0.30

!*---------------MATERIAL 89 (Used by 73 elements)------------------
MP,EX,89,3688.72098897796
MP,NUXY,89,0.30

!*---------------MATERIAL 90 (Used by 74 elements)------------------
MP,EX,90,3729.83267635271
MP,NUXY,90,0.30

!*---------------MATERIAL 91 (Used by 67 elements)------------------
MP,EX,91,3770.94436372745
MP,NUXY,91,0.30

!*---------------MATERIAL 92 (Used by 92 elements)------------------
MP,EX,92,3812.0560511022
MP,NUXY,92,0.30

!*---------------MATERIAL 93 (Used by 81 elements)------------------
MP,EX,93,3853.16773847695
MP,NUXY,93,0.30

!*---------------MATERIAL 94 (Used by 69 elements)------------------
MP,EX,94,3894.2794258517
MP,NUXY,94,0.30

!*---------------MATERIAL 95 (Used by 70 elements)------------------
MP,EX,95,3935.39111322645
MP,NUXY,95,0.30

!*---------------MATERIAL 96 (Used by 56 elements)------------------
MP,EX,96,3976.5028006012
MP,NUXY,96,0.30

!*---------------MATERIAL 97 (Used by 54 elements)------------------
MP,EX,97,4017.61448797595
MP,NUXY,97,0.30

!*---------------MATERIAL 98 (Used by 78 elements)------------------
MP,EX,98,4058.7261753507
MP,NUXY,98,0.30

!*---------------MATERIAL 99 (Used by 66 elements)------------------
MP,EX,99,4099.83786272545
MP,NUXY,99,0.30

!*---------------MATERIAL 100 (Used by 66 elements)------------------
MP,EX,100,4140.9495501002
MP,NUXY,100,0.30

!*---------------MATERIAL 101 (Used by 70 elements)------------------
MP,EX,101,4182.06123747495
MP,NUXY,101,0.30

!*---------------MATERIAL 102 (Used by 48 elements)------------------
MP,EX,102,4223.1729248497
MP,NUXY,102,0.30

!*---------------MATERIAL 103 (Used by 65 elements)------------------
MP,EX,103,4264.28461222445
MP,NUXY,103,0.30

!*---------------MATERIAL 104 (Used by 47 elements)------------------
MP,EX,104,4305.3962995992
MP,NUXY,104,0.30

!*---------------MATERIAL 105 (Used by 44 elements)------------------
MP,EX,105,4346.50798697395
MP,NUXY,105,0.30

!*---------------MATERIAL 106 (Used by 58 elements)------------------
MP,EX,106,4387.6196743487
MP,NUXY,106,0.30

!*---------------MATERIAL 107 (Used by 53 elements)------------------
MP,EX,107,4428.73136172345
MP,NUXY,107,0.30

!*---------------MATERIAL 108 (Used by 50 elements)------------------
MP,EX,108,4469.8430490982
MP,NUXY,108,0.30

!*---------------MATERIAL 109 (Used by 54 elements)------------------
MP,EX,109,4510.95473647295
MP,NUXY,109,0.30

!*---------------MATERIAL 110 (Used by 52 elements)------------------
MP,EX,110,4552.0664238477
MP,NUXY,110,0.30

!*---------------MATERIAL 111 (Used by 56 elements)------------------
MP,EX,111,4593.17811122245
MP,NUXY,111,0.30

!*---------------MATERIAL 112 (Used by 40 elements)------------------
MP,EX,112,4634.28979859719
MP,NUXY,112,0.30

!*---------------MATERIAL 113 (Used by 37 elements)------------------
MP,EX,113,4675.40148597194
MP,NUXY,113,0.30

!*---------------MATERIAL 114 (Used by 52 elements)------------------
MP,EX,114,4716.51317334669
MP,NUXY,114,0.30

!*---------------MATERIAL 115 (Used by 34 elements)------------------
MP,EX,115,4757.62486072144
MP,NUXY,115,0.30

!*---------------MATERIAL 116 (Used by 42 elements)------------------
MP,EX,116,4798.73654809619
MP,NUXY,116,0.30

!*---------------MATERIAL 117 (Used by 36 elements)------------------
MP,EX,117,4839.84823547094
MP,NUXY,117,0.30

!*---------------MATERIAL 118 (Used by 49 elements)------------------
MP,EX,118,4880.95992284569
MP,NUXY,118,0.30

!*---------------MATERIAL 119 (Used by 48 elements)------------------
MP,EX,119,4922.07161022044
MP,NUXY,119,0.30

!*---------------MATERIAL 120 (Used by 33 elements)------------------
MP,EX,120,4963.18329759519
MP,NUXY,120,0.30

!*---------------MATERIAL 121 (Used by 51 elements)------------------
MP,EX,121,5004.29498496994
MP,NUXY,121,0.30

!*---------------MATERIAL 122 (Used by 39 elements)------------------
MP,EX,122,5045.40667234469
MP,NUXY,122,0.30

!*---------------MATERIAL 123 (Used by 34 elements)------------------
MP,EX,123,5086.51835971944
MP,NUXY,123,0.30

!*---------------MATERIAL 124 (Used by 33 elements)------------------
MP,EX,124,5127.63004709419
MP,NUXY,124,0.30

!*---------------MATERIAL 125 (Used by 29 elements)------------------
MP,EX,125,5168.74173446894
MP,NUXY,125,0.30

!*---------------MATERIAL 126 (Used by 37 elements)------------------
MP,EX,126,5209.85342184369
MP,NUXY,126,0.30

!*---------------MATERIAL 127 (Used by 47 elements)------------------
MP,EX,127,5250.96510921844
MP,NUXY,127,0.30

!*---------------MATERIAL 128 (Used by 43 elements)------------------
MP,EX,128,5292.07679659319
MP,NUXY,128,0.30

!*---------------MATERIAL 129 (Used by 35 elements)------------------
MP,EX,129,5333.18848396794
MP,NUXY,129,0.30

!*---------------MATERIAL 130 (Used by 29 elements)------------------
MP,EX,130,5374.30017134268
MP,NUXY,130,0.30

!*---------------MATERIAL 131 (Used by 28 elements)------------------
MP,EX,131,5415.41185871744
MP,NUXY,131,0.30

!*---------------MATERIAL 132 (Used by 18 elements)------------------
MP,EX,132,5456.52354609218
MP,NUXY,132,0.30

!*---------------MATERIAL 133 (Used by 40 elements)------------------
MP,EX,133,5497.63523346693
MP,NUXY,133,0.30

!*---------------MATERIAL 134 (Used by 36 elements)------------------
MP,EX,134,5538.74692084168
MP,NUXY,134,0.30

!*---------------MATERIAL 135 (Used by 30 elements)------------------
MP,EX,135,5579.85860821643
MP,NUXY,135,0.30

!*---------------MATERIAL 136 (Used by 23 elements)------------------
MP,EX,136,5620.97029559118
MP,NUXY,136,0.30

!*---------------MATERIAL 137 (Used by 36 elements)------------------
MP,EX,137,5662.08198296593
MP,NUXY,137,0.30

!*---------------MATERIAL 138 (Used by 36 elements)------------------
MP,EX,138,5703.19367034068
MP,NUXY,138,0.30

!*---------------MATERIAL 139 (Used by 26 elements)------------------
MP,EX,139,5744.30535771543
MP,NUXY,139,0.30

!*---------------MATERIAL 140 (Used by 35 elements)------------------
MP,EX,140,5785.41704509018
MP,NUXY,140,0.30

!*---------------MATERIAL 141 (Used by 37 elements)------------------
MP,EX,141,5826.52873246493
MP,NUXY,141,0.30

!*---------------MATERIAL 142 (Used by 22 elements)------------------
MP,EX,142,5867.64041983968
MP,NUXY,142,0.30

!*---------------MATERIAL 143 (Used by 34 elements)------------------
MP,EX,143,5908.75210721443
MP,NUXY,143,0.30

!*---------------MATERIAL 144 (Used by 36 elements)------------------
MP,EX,144,5949.86379458918
MP,NUXY,144,0.30

!*---------------MATERIAL 145 (Used by 18 elements)------------------
MP,EX,145,5990.97548196393
MP,NUXY,145,0.30

!*---------------MATERIAL 146 (Used by 25 elements)------------------
MP,EX,146,6032.08716933868
MP,NUXY,146,0.30

!*---------------MATERIAL 147 (Used by 18 elements)------------------
MP,EX,147,6073.19885671343
MP,NUXY,147,0.30

!*---------------MATERIAL 148 (Used by 29 elements)------------------
MP,EX,148,6114.31054408818
MP,NUXY,148,0.30

!*---------------MATERIAL 149 (Used by 19 elements)------------------
MP,EX,149,6155.42223146293
MP,NUXY,149,0.30

!*---------------MATERIAL 150 (Used by 25 elements)------------------
MP,EX,150,6196.53391883768
MP,NUXY,150,0.30

!*---------------MATERIAL 151 (Used by 33 elements)------------------
MP,EX,151,6237.64560621242
MP,NUXY,151,0.30

!*---------------MATERIAL 152 (Used by 31 elements)------------------
MP,EX,152,6278.75729358717
MP,NUXY,152,0.30

!*---------------MATERIAL 153 (Used by 22 elements)------------------
MP,EX,153,6319.86898096192
MP,NUXY,153,0.30

!*---------------MATERIAL 154 (Used by 21 elements)------------------
MP,EX,154,6360.98066833667
MP,NUXY,154,0.30

!*---------------MATERIAL 155 (Used by 29 elements)------------------
MP,EX,155,6402.09235571142
MP,NUXY,155,0.30

!*---------------MATERIAL 156 (Used by 24 elements)------------------
MP,EX,156,6443.20404308617
MP,NUXY,156,0.30

!*---------------MATERIAL 157 (Used by 23 elements)------------------
MP,EX,157,6484.31573046092
MP,NUXY,157,0.30

!*---------------MATERIAL 158 (Used by 26 elements)------------------
MP,EX,158,6525.42741783567
MP,NUXY,158,0.30

!*---------------MATERIAL 159 (Used by 28 elements)------------------
MP,EX,159,6566.53910521042
MP,NUXY,159,0.30

!*---------------MATERIAL 160 (Used by 19 elements)------------------
MP,EX,160,6607.65079258517
MP,NUXY,160,0.30

!*---------------MATERIAL 161 (Used by 31 elements)------------------
MP,EX,161,6648.76247995992
MP,NUXY,161,0.30

!*---------------MATERIAL 162 (Used by 23 elements)------------------
MP,EX,162,6689.87416733467
MP,NUXY,162,0.30

!*---------------MATERIAL 163 (Used by 16 elements)------------------
MP,EX,163,6730.98585470942
MP,NUXY,163,0.30

!*---------------MATERIAL 164 (Used by 26 elements)------------------
MP,EX,164,6772.09754208417
MP,NUXY,164,0.30

!*---------------MATERIAL 165 (Used by 18 elements)------------------
MP,EX,165,6813.20922945892
MP,NUXY,165,0.30

!*---------------MATERIAL 166 (Used by 26 elements)------------------
MP,EX,166,6854.32091683367
MP,NUXY,166,0.30

!*---------------MATERIAL 167 (Used by 26 elements)------------------
MP,EX,167,6895.43260420842
MP,NUXY,167,0.30

!*---------------MATERIAL 168 (Used by 24 elements)------------------
MP,EX,168,6936.54429158317
MP,NUXY,168,0.30

!*---------------MATERIAL 169 (Used by 25 elements)------------------
MP,EX,169,6977.65597895792
MP,NUXY,169,0.30

!*---------------MATERIAL 170 (Used by 17 elements)------------------
MP,EX,170,7018.76766633267
MP,NUXY,170,0.30

!*---------------MATERIAL 171 (Used by 23 elements)------------------
MP,EX,171,7059.87935370741
MP,NUXY,171,0.30

!*---------------MATERIAL 172 (Used by 19 elements)------------------
MP,EX,172,7100.99104108216
MP,NUXY,172,0.30

!*---------------MATERIAL 173 (Used by 14 elements)------------------
MP,EX,173,7142.10272845691
MP,NUXY,173,0.30

!*---------------MATERIAL 174 (Used by 12 elements)------------------
MP,EX,174,7183.21441583166
MP,NUXY,174,0.30

!*---------------MATERIAL 175 (Used by 19 elements)------------------
MP,EX,175,7224.32610320641
MP,NUXY,175,0.30

!*---------------MATERIAL 176 (Used by 17 elements)------------------
MP,EX,176,7265.43779058116
MP,NUXY,176,0.30

!*---------------MATERIAL 177 (Used by 15 elements)------------------
MP,EX,177,7306.54947795591
MP,NUXY,177,0.30

!*---------------MATERIAL 178 (Used by 22 elements)------------------
MP,EX,178,7347.66116533066
MP,NUXY,178,0.30

!*---------------MATERIAL 179 (Used by 19 elements)------------------
MP,EX,179,7388.77285270541
MP,NUXY,179,0.30

!*---------------MATERIAL 180 (Used by 24 elements)------------------
MP,EX,180,7429.88454008016
MP,NUXY,180,0.30

!*---------------MATERIAL 181 (Used by 16 elements)------------------
MP,EX,181,7470.99622745491
MP,NUXY,181,0.30

!*---------------MATERIAL 182 (Used by 12 elements)------------------
MP,EX,182,7512.10791482966
MP,NUXY,182,0.30

!*---------------MATERIAL 183 (Used by 13 elements)------------------
MP,EX,183,7553.21960220441
MP,NUXY,183,0.30

!*---------------MATERIAL 184 (Used by 16 elements)------------------
MP,EX,184,7594.33128957916
MP,NUXY,184,0.30

!*---------------MATERIAL 185 (Used by 11 elements)------------------
MP,EX,185,7635.44297695391
MP,NUXY,185,0.30

!*---------------MATERIAL 186 (Used by 19 elements)------------------
MP,EX,186,7676.55466432866
MP,NUXY,186,0.30

!*---------------MATERIAL 187 (Used by 17 elements)------------------
MP,EX,187,7717.66635170341
MP,NUXY,187,0.30

!*---------------MATERIAL 188 (Used by 18 elements)------------------
MP,EX,188,7758.77803907816
MP,NUXY,188,0.30

!*---------------MATERIAL 189 (Used by 19 elements)------------------
MP,EX,189,7799.88972645291
MP,NUXY,189,0.30

!*---------------MATERIAL 190 (Used by 24 elements)------------------
MP,EX,190,7841.00141382765
MP,NUXY,190,0.30

!*---------------MATERIAL 191 (Used by 19 elements)------------------
MP,EX,191,7882.11310120241
MP,NUXY,191,0.30

!*---------------MATERIAL 192 (Used by 26 elements)------------------
MP,EX,192,7923.22478857715
MP,NUXY,192,0.30

!*---------------MATERIAL 193 (Used by 21 elements)------------------
MP,EX,193,7964.3364759519
MP,NUXY,193,0.30

!*---------------MATERIAL 194 (Used by 17 elements)------------------
MP,EX,194,8005.44816332665
MP,NUXY,194,0.30

!*---------------MATERIAL 195 (Used by 16 elements)------------------
MP,EX,195,8046.5598507014
MP,NUXY,195,0.30

!*---------------MATERIAL 196 (Used by 9 elements)------------------
MP,EX,196,8087.67153807615
MP,NUXY,196,0.30

!*---------------MATERIAL 197 (Used by 20 elements)------------------
MP,EX,197,8128.7832254509
MP,NUXY,197,0.30

!*---------------MATERIAL 198 (Used by 22 elements)------------------
MP,EX,198,8169.89491282565
MP,NUXY,198,0.30

!*---------------MATERIAL 199 (Used by 13 elements)------------------
MP,EX,199,8211.0066002004
MP,NUXY,199,0.30

!*---------------MATERIAL 200 (Used by 25 elements)------------------
MP,EX,200,8252.11828757515
MP,NUXY,200,0.30

!*---------------MATERIAL 201 (Used by 16 elements)------------------
MP,EX,201,8293.2299749499
MP,NUXY,201,0.30

!*---------------MATERIAL 202 (Used by 18 elements)------------------
MP,EX,202,8334.34166232465
MP,NUXY,202,0.30

!*---------------MATERIAL 203 (Used by 15 elements)------------------
MP,EX,203,8375.4533496994
MP,NUXY,203,0.30

!*---------------MATERIAL 204 (Used by 10 elements)------------------
MP,EX,204,8416.56503707415
MP,NUXY,204,0.30

!*---------------MATERIAL 205 (Used by 12 elements)------------------
MP,EX,205,8457.6767244489
MP,NUXY,205,0.30

!*---------------MATERIAL 206 (Used by 14 elements)------------------
MP,EX,206,8498.78841182365
MP,NUXY,206,0.30

!*---------------MATERIAL 207 (Used by 14 elements)------------------
MP,EX,207,8539.9000991984
MP,NUXY,207,0.30

!*---------------MATERIAL 208 (Used by 12 elements)------------------
MP,EX,208,8581.01178657315
MP,NUXY,208,0.30

!*---------------MATERIAL 209 (Used by 10 elements)------------------
MP,EX,209,8622.1234739479
MP,NUXY,209,0.30

!*---------------MATERIAL 210 (Used by 14 elements)------------------
MP,EX,210,8663.23516132265
MP,NUXY,210,0.30

!*---------------MATERIAL 211 (Used by 12 elements)------------------
MP,EX,211,8704.34684869739
MP,NUXY,211,0.30

!*---------------MATERIAL 212 (Used by 12 elements)------------------
MP,EX,212,8745.45853607214
MP,NUXY,212,0.30

!*---------------MATERIAL 213 (Used by 16 elements)------------------
MP,EX,213,8786.57022344689
MP,NUXY,213,0.30

!*---------------MATERIAL 214 (Used by 4 elements)------------------
MP,EX,214,8827.68191082164
MP,NUXY,214,0.30

!*---------------MATERIAL 215 (Used by 16 elements)------------------
MP,EX,215,8868.79359819639
MP,NUXY,215,0.30

!*---------------MATERIAL 216 (Used by 7 elements)------------------
MP,EX,216,8909.90528557114
MP,NUXY,216,0.30

!*---------------MATERIAL 217 (Used by 8 elements)------------------
MP,EX,217,8951.01697294589
MP,NUXY,217,0.30

!*---------------MATERIAL 218 (Used by 7 elements)------------------
MP,EX,218,8992.12866032064
MP,NUXY,218,0.30

!*---------------MATERIAL 219 (Used by 11 elements)------------------
MP,EX,219,9033.24034769539
MP,NUXY,219,0.30

!*---------------MATERIAL 220 (Used by 16 elements)------------------
MP,EX,220,9074.35203507014
MP,NUXY,220,0.30

!*---------------MATERIAL 221 (Used by 10 elements)------------------
MP,EX,221,9115.46372244489
MP,NUXY,221,0.30

!*---------------MATERIAL 222 (Used by 10 elements)------------------
MP,EX,222,9156.57540981964
MP,NUXY,222,0.30

!*---------------MATERIAL 223 (Used by 12 elements)------------------
MP,EX,223,9197.68709719439
MP,NUXY,223,0.30

!*---------------MATERIAL 224 (Used by 12 elements)------------------
MP,EX,224,9238.79878456914
MP,NUXY,224,0.30

!*---------------MATERIAL 225 (Used by 14 elements)------------------
MP,EX,225,9279.91047194389
MP,NUXY,225,0.30

!*---------------MATERIAL 226 (Used by 7 elements)------------------
MP,EX,226,9321.02215931864
MP,NUXY,226,0.30

!*---------------MATERIAL 227 (Used by 12 elements)------------------
MP,EX,227,9362.13384669339
MP,NUXY,227,0.30

!*---------------MATERIAL 228 (Used by 16 elements)------------------
MP,EX,228,9403.24553406814
MP,NUXY,228,0.30

!*---------------MATERIAL 229 (Used by 13 elements)------------------
MP,EX,229,9444.35722144289
MP,NUXY,229,0.30

!*---------------MATERIAL 230 (Used by 9 elements)------------------
MP,EX,230,9485.46890881763
MP,NUXY,230,0.30

!*---------------MATERIAL 231 (Used by 13 elements)------------------
MP,EX,231,9526.58059619239
MP,NUXY,231,0.30

!*---------------MATERIAL 232 (Used by 19 elements)------------------
MP,EX,232,9567.69228356713
MP,NUXY,232,0.30

!*---------------MATERIAL 233 (Used by 16 elements)------------------
MP,EX,233,9608.80397094188
MP,NUXY,233,0.30

!*---------------MATERIAL 234 (Used by 8 elements)------------------
MP,EX,234,9649.91565831663
MP,NUXY,234,0.30

!*---------------MATERIAL 235 (Used by 7 elements)------------------
MP,EX,235,9691.02734569138
MP,NUXY,235,0.30

!*---------------MATERIAL 236 (Used by 15 elements)------------------
MP,EX,236,9732.13903306613
MP,NUXY,236,0.30

!*---------------MATERIAL 237 (Used by 14 elements)------------------
MP,EX,237,9773.25072044088
MP,NUXY,237,0.30

!*---------------MATERIAL 238 (Used by 14 elements)------------------
MP,EX,238,9814.36240781563
MP,NUXY,238,0.30

!*---------------MATERIAL 239 (Used by 11 elements)------------------
MP,EX,239,9855.47409519038
MP,NUXY,239,0.30

!*---------------MATERIAL 240 (Used by 10 elements)------------------
MP,EX,240,9896.58578256513
MP,NUXY,240,0.30

!*---------------MATERIAL 241 (Used by 11 elements)------------------
MP,EX,241,9937.69746993988
MP,NUXY,241,0.30

!*---------------MATERIAL 242 (Used by 8 elements)------------------
MP,EX,242,9978.80915731463
MP,NUXY,242,0.30

!*---------------MATERIAL 243 (Used by 10 elements)------------------
MP,EX,243,10019.9208446894
MP,NUXY,243,0.30

!*---------------MATERIAL 244 (Used by 12 elements)------------------
MP,EX,244,10061.0325320641
MP,NUXY,244,0.30

!*---------------MATERIAL 245 (Used by 9 elements)------------------
MP,EX,245,10102.1442194389
MP,NUXY,245,0.30

!*---------------MATERIAL 246 (Used by 5 elements)------------------
MP,EX,246,10143.2559068136
MP,NUXY,246,0.30

!*---------------MATERIAL 247 (Used by 9 elements)------------------
MP,EX,247,10184.3675941884
MP,NUXY,247,0.30

!*---------------MATERIAL 248 (Used by 14 elements)------------------
MP,EX,248,10225.4792815631
MP,NUXY,248,0.30

!*---------------MATERIAL 249 (Used by 14 elements)------------------
MP,EX,249,10266.5909689379
MP,NUXY,249,0.30

!*---------------MATERIAL 250 (Used by 13 elements)------------------
MP,EX,250,10307.7026563126
MP,NUXY,250,0.30

!*---------------MATERIAL 251 (Used by 12 elements)------------------
MP,EX,251,10348.8143436874
MP,NUXY,251,0.30

!*---------------MATERIAL 252 (Used by 16 elements)------------------
MP,EX,252,10389.9260310621
MP,NUXY,252,0.30

!*---------------MATERIAL 253 (Used by 9 elements)------------------
MP,EX,253,10431.0377184369
MP,NUXY,253,0.30

!*---------------MATERIAL 254 (Used by 11 elements)------------------
MP,EX,254,10472.1494058116
MP,NUXY,254,0.30

!*---------------MATERIAL 255 (Used by 5 elements)------------------
MP,EX,255,10513.2610931864
MP,NUXY,255,0.30

!*---------------MATERIAL 256 (Used by 9 elements)------------------
MP,EX,256,10554.3727805611
MP,NUXY,256,0.30

!*---------------MATERIAL 257 (Used by 12 elements)------------------
MP,EX,257,10595.4844679359
MP,NUXY,257,0.30

!*---------------MATERIAL 258 (Used by 7 elements)------------------
MP,EX,258,10636.5961553106
MP,NUXY,258,0.30

!*---------------MATERIAL 259 (Used by 9 elements)------------------
MP,EX,259,10677.7078426854
MP,NUXY,259,0.30

!*---------------MATERIAL 260 (Used by 7 elements)------------------
MP,EX,260,10718.8195300601
MP,NUXY,260,0.30

!*---------------MATERIAL 261 (Used by 12 elements)------------------
MP,EX,261,10759.9312174349
MP,NUXY,261,0.30

!*---------------MATERIAL 262 (Used by 13 elements)------------------
MP,EX,262,10801.0429048096
MP,NUXY,262,0.30

!*---------------MATERIAL 263 (Used by 13 elements)------------------
MP,EX,263,10842.1545921844
MP,NUXY,263,0.30

!*---------------MATERIAL 264 (Used by 7 elements)------------------
MP,EX,264,10883.2662795591
MP,NUXY,264,0.30

!*---------------MATERIAL 265 (Used by 9 elements)------------------
MP,EX,265,10924.3779669339
MP,NUXY,265,0.30

!*---------------MATERIAL 266 (Used by 11 elements)------------------
MP,EX,266,10965.4896543086
MP,NUXY,266,0.30

!*---------------MATERIAL 267 (Used by 10 elements)------------------
MP,EX,267,11006.6013416834
MP,NUXY,267,0.30

!*---------------MATERIAL 268 (Used by 13 elements)------------------
MP,EX,268,11047.7130290581
MP,NUXY,268,0.30

!*---------------MATERIAL 269 (Used by 6 elements)------------------
MP,EX,269,11088.8247164329
MP,NUXY,269,0.30

!*---------------MATERIAL 270 (Used by 9 elements)------------------
MP,EX,270,11129.9364038076
MP,NUXY,270,0.30

!*---------------MATERIAL 271 (Used by 12 elements)------------------
MP,EX,271,11171.0480911824
MP,NUXY,271,0.30

!*---------------MATERIAL 272 (Used by 7 elements)------------------
MP,EX,272,11212.1597785571
MP,NUXY,272,0.30

!*---------------MATERIAL 273 (Used by 10 elements)------------------
MP,EX,273,11253.2714659319
MP,NUXY,273,0.30

!*---------------MATERIAL 274 (Used by 10 elements)------------------
MP,EX,274,11294.3831533066
MP,NUXY,274,0.30

!*---------------MATERIAL 275 (Used by 10 elements)------------------
MP,EX,275,11335.4948406814
MP,NUXY,275,0.30

!*---------------MATERIAL 276 (Used by 7 elements)------------------
MP,EX,276,11376.6065280561
MP,NUXY,276,0.30

!*---------------MATERIAL 277 (Used by 7 elements)------------------
MP,EX,277,11417.7182154309
MP,NUXY,277,0.30

!*---------------MATERIAL 278 (Used by 9 elements)------------------
MP,EX,278,11458.8299028056
MP,NUXY,278,0.30

!*---------------MATERIAL 279 (Used by 8 elements)------------------
MP,EX,279,11499.9415901804
MP,NUXY,279,0.30

!*---------------MATERIAL 280 (Used by 6 elements)------------------
MP,EX,280,11541.0532775551
MP,NUXY,280,0.30

!*---------------MATERIAL 281 (Used by 11 elements)------------------
MP,EX,281,11582.1649649299
MP,NUXY,281,0.30

!*---------------MATERIAL 282 (Used by 10 elements)------------------
MP,EX,282,11623.2766523046
MP,NUXY,282,0.30

!*---------------MATERIAL 283 (Used by 8 elements)------------------
MP,EX,283,11664.3883396794
MP,NUXY,283,0.30

!*---------------MATERIAL 284 (Used by 7 elements)------------------
MP,EX,284,11705.5000270541
MP,NUXY,284,0.30

!*---------------MATERIAL 285 (Used by 9 elements)------------------
MP,EX,285,11746.6117144289
MP,NUXY,285,0.30

!*---------------MATERIAL 286 (Used by 17 elements)------------------
MP,EX,286,11787.7234018036
MP,NUXY,286,0.30

!*---------------MATERIAL 287 (Used by 11 elements)------------------
MP,EX,287,11828.8350891784
MP,NUXY,287,0.30

!*---------------MATERIAL 288 (Used by 12 elements)------------------
MP,EX,288,11869.9467765531
MP,NUXY,288,0.30

!*---------------MATERIAL 289 (Used by 10 elements)------------------
MP,EX,289,11911.0584639279
MP,NUXY,289,0.30

!*---------------MATERIAL 290 (Used by 8 elements)------------------
MP,EX,290,11952.1701513026
MP,NUXY,290,0.30

!*---------------MATERIAL 291 (Used by 5 elements)------------------
MP,EX,291,11993.2818386774
MP,NUXY,291,0.30

!*---------------MATERIAL 292 (Used by 13 elements)------------------
MP,EX,292,12034.3935260521
MP,NUXY,292,0.30

!*---------------MATERIAL 293 (Used by 12 elements)------------------
MP,EX,293,12075.5052134269
MP,NUXY,293,0.30

!*---------------MATERIAL 294 (Used by 13 elements)------------------
MP,EX,294,12116.6169008016
MP,NUXY,294,0.30

!*---------------MATERIAL 295 (Used by 11 elements)------------------
MP,EX,295,12157.7285881764
MP,NUXY,295,0.30

!*---------------MATERIAL 296 (Used by 9 elements)------------------
MP,EX,296,12198.8402755511
MP,NUXY,296,0.30

!*---------------MATERIAL 297 (Used by 9 elements)------------------
MP,EX,297,12239.9519629259
MP,NUXY,297,0.30

!*---------------MATERIAL 298 (Used by 8 elements)------------------
MP,EX,298,12281.0636503006
MP,NUXY,298,0.30

!*---------------MATERIAL 299 (Used by 6 elements)------------------
MP,EX,299,12322.1753376754
MP,NUXY,299,0.30

!*---------------MATERIAL 300 (Used by 7 elements)------------------
MP,EX,300,12363.2870250501
MP,NUXY,300,0.30

!*---------------MATERIAL 301 (Used by 3 elements)------------------
MP,EX,301,12404.3987124248
MP,NUXY,301,0.30

!*---------------MATERIAL 302 (Used by 8 elements)------------------
MP,EX,302,12445.5103997996
MP,NUXY,302,0.30

!*---------------MATERIAL 303 (Used by 6 elements)------------------
MP,EX,303,12486.6220871744
MP,NUXY,303,0.30

!*---------------MATERIAL 304 (Used by 8 elements)------------------
MP,EX,304,12527.7337745491
MP,NUXY,304,0.30

!*---------------MATERIAL 305 (Used by 13 elements)------------------
MP,EX,305,12568.8454619238
MP,NUXY,305,0.30

!*---------------MATERIAL 306 (Used by 10 elements)------------------
MP,EX,306,12609.9571492986
MP,NUXY,306,0.30

!*---------------MATERIAL 307 (Used by 4 elements)------------------
MP,EX,307,12651.0688366733
MP,NUXY,307,0.30

!*---------------MATERIAL 308 (Used by 7 elements)------------------
MP,EX,308,12692.1805240481
MP,NUXY,308,0.30

!*---------------MATERIAL 309 (Used by 5 elements)------------------
MP,EX,309,12733.2922114228
MP,NUXY,309,0.30

!*---------------MATERIAL 310 (Used by 11 elements)------------------
MP,EX,310,12774.4038987976
MP,NUXY,310,0.30

!*---------------MATERIAL 311 (Used by 8 elements)------------------
MP,EX,311,12815.5155861723
MP,NUXY,311,0.30

!*---------------MATERIAL 312 (Used by 5 elements)------------------
MP,EX,312,12856.6272735471
MP,NUXY,312,0.30

!*---------------MATERIAL 313 (Used by 7 elements)------------------
MP,EX,313,12897.7389609218
MP,NUXY,313,0.30

!*---------------MATERIAL 314 (Used by 7 elements)------------------
MP,EX,314,12938.8506482966
MP,NUXY,314,0.30

!*---------------MATERIAL 315 (Used by 7 elements)------------------
MP,EX,315,12979.9623356713
MP,NUXY,315,0.30

!*---------------MATERIAL 316 (Used by 9 elements)------------------
MP,EX,316,13021.0740230461
MP,NUXY,316,0.30

!*---------------MATERIAL 317 (Used by 9 elements)------------------
MP,EX,317,13062.1857104208
MP,NUXY,317,0.30

!*---------------MATERIAL 318 (Used by 10 elements)------------------
MP,EX,318,13103.2973977956
MP,NUXY,318,0.30

!*---------------MATERIAL 319 (Used by 10 elements)------------------
MP,EX,319,13144.4090851703
MP,NUXY,319,0.30

!*---------------MATERIAL 320 (Used by 10 elements)------------------
MP,EX,320,13185.5207725451
MP,NUXY,320,0.30

!*---------------MATERIAL 321 (Used by 9 elements)------------------
MP,EX,321,13226.6324599198
MP,NUXY,321,0.30

!*---------------MATERIAL 322 (Used by 8 elements)------------------
MP,EX,322,13267.7441472946
MP,NUXY,322,0.30

!*---------------MATERIAL 323 (Used by 10 elements)------------------
MP,EX,323,13308.8558346693
MP,NUXY,323,0.30

!*---------------MATERIAL 324 (Used by 7 elements)------------------
MP,EX,324,13349.9675220441
MP,NUXY,324,0.30

!*---------------MATERIAL 325 (Used by 6 elements)------------------
MP,EX,325,13391.0792094188
MP,NUXY,325,0.30

!*---------------MATERIAL 326 (Used by 9 elements)------------------
MP,EX,326,13432.1908967936
MP,NUXY,326,0.30

!*---------------MATERIAL 327 (Used by 5 elements)------------------
MP,EX,327,13473.3025841683
MP,NUXY,327,0.30

!*---------------MATERIAL 328 (Used by 9 elements)------------------
MP,EX,328,13514.4142715431
MP,NUXY,328,0.30

!*---------------MATERIAL 329 (Used by 10 elements)------------------
MP,EX,329,13555.5259589178
MP,NUXY,329,0.30

!*---------------MATERIAL 330 (Used by 8 elements)------------------
MP,EX,330,13596.6376462926
MP,NUXY,330,0.30

!*---------------MATERIAL 331 (Used by 8 elements)------------------
MP,EX,331,13637.7493336673
MP,NUXY,331,0.30

!*---------------MATERIAL 332 (Used by 4 elements)------------------
MP,EX,332,13678.8610210421
MP,NUXY,332,0.30

!*---------------MATERIAL 333 (Used by 6 elements)------------------
MP,EX,333,13719.9727084168
MP,NUXY,333,0.30

!*---------------MATERIAL 334 (Used by 3 elements)------------------
MP,EX,334,13761.0843957916
MP,NUXY,334,0.30

!*---------------MATERIAL 335 (Used by 4 elements)------------------
MP,EX,335,13802.1960831663
MP,NUXY,335,0.30

!*---------------MATERIAL 336 (Used by 8 elements)------------------
MP,EX,336,13843.3077705411
MP,NUXY,336,0.30

!*---------------MATERIAL 337 (Used by 4 elements)------------------
MP,EX,337,13884.4194579158
MP,NUXY,337,0.30

!*---------------MATERIAL 338 (Used by 5 elements)------------------
MP,EX,338,13925.5311452906
MP,NUXY,338,0.30

!*---------------MATERIAL 339 (Used by 3 elements)------------------
MP,EX,339,13966.6428326653
MP,NUXY,339,0.30

!*---------------MATERIAL 340 (Used by 6 elements)------------------
MP,EX,340,14007.7545200401
MP,NUXY,340,0.30

!*---------------MATERIAL 341 (Used by 5 elements)------------------
MP,EX,341,14048.8662074148
MP,NUXY,341,0.30

!*---------------MATERIAL 342 (Used by 10 elements)------------------
MP,EX,342,14089.9778947896
MP,NUXY,342,0.30

!*---------------MATERIAL 343 (Used by 8 elements)------------------
MP,EX,343,14131.0895821643
MP,NUXY,343,0.30

!*---------------MATERIAL 344 (Used by 7 elements)------------------
MP,EX,344,14172.2012695391
MP,NUXY,344,0.30

!*---------------MATERIAL 345 (Used by 2 elements)------------------
MP,EX,345,14213.3129569138
MP,NUXY,345,0.30

!*---------------MATERIAL 346 (Used by 7 elements)------------------
MP,EX,346,14254.4246442886
MP,NUXY,346,0.30

!*---------------MATERIAL 347 (Used by 4 elements)------------------
MP,EX,347,14295.5363316633
MP,NUXY,347,0.30

!*---------------MATERIAL 348 (Used by 5 elements)------------------
MP,EX,348,14336.6480190381
MP,NUXY,348,0.30

!*---------------MATERIAL 349 (Used by 5 elements)------------------
MP,EX,349,14377.7597064128
MP,NUXY,349,0.30

!*---------------MATERIAL 350 (Used by 9 elements)------------------
MP,EX,350,14418.8713937876
MP,NUXY,350,0.30

!*---------------MATERIAL 351 (Used by 11 elements)------------------
MP,EX,351,14459.9830811623
MP,NUXY,351,0.30

!*---------------MATERIAL 352 (Used by 9 elements)------------------
MP,EX,352,14501.0947685371
MP,NUXY,352,0.30

!*---------------MATERIAL 353 (Used by 13 elements)------------------
MP,EX,353,14542.2064559118
MP,NUXY,353,0.30

!*---------------MATERIAL 354 (Used by 10 elements)------------------
MP,EX,354,14583.3181432866
MP,NUXY,354,0.30

!*---------------MATERIAL 355 (Used by 9 elements)------------------
MP,EX,355,14624.4298306613
MP,NUXY,355,0.30

!*---------------MATERIAL 356 (Used by 11 elements)------------------
MP,EX,356,14665.5415180361
MP,NUXY,356,0.30

!*---------------MATERIAL 357 (Used by 6 elements)------------------
MP,EX,357,14706.6532054108
MP,NUXY,357,0.30

!*---------------MATERIAL 358 (Used by 6 elements)------------------
MP,EX,358,14747.7648927856
MP,NUXY,358,0.30

!*---------------MATERIAL 359 (Used by 10 elements)------------------
MP,EX,359,14788.8765801603
MP,NUXY,359,0.30

!*---------------MATERIAL 360 (Used by 8 elements)------------------
MP,EX,360,14829.9882675351
MP,NUXY,360,0.30

!*---------------MATERIAL 361 (Used by 9 elements)------------------
MP,EX,361,14871.0999549098
MP,NUXY,361,0.30

!*---------------MATERIAL 362 (Used by 3 elements)------------------
MP,EX,362,14912.2116422846
MP,NUXY,362,0.30

!*---------------MATERIAL 363 (Used by 11 elements)------------------
MP,EX,363,14953.3233296593
MP,NUXY,363,0.30

!*---------------MATERIAL 364 (Used by 8 elements)------------------
MP,EX,364,14994.4350170341
MP,NUXY,364,0.30

!*---------------MATERIAL 365 (Used by 8 elements)------------------
MP,EX,365,15035.5467044088
MP,NUXY,365,0.30

!*---------------MATERIAL 366 (Used by 14 elements)------------------
MP,EX,366,15076.6583917836
MP,NUXY,366,0.30

!*---------------MATERIAL 367 (Used by 8 elements)------------------
MP,EX,367,15117.7700791583
MP,NUXY,367,0.30

!*---------------MATERIAL 368 (Used by 6 elements)------------------
MP,EX,368,15158.8817665331
MP,NUXY,368,0.30

!*---------------MATERIAL 369 (Used by 5 elements)------------------
MP,EX,369,15199.9934539078
MP,NUXY,369,0.30

!*---------------MATERIAL 370 (Used by 6 elements)------------------
MP,EX,370,15241.1051412826
MP,NUXY,370,0.30

!*---------------MATERIAL 371 (Used by 9 elements)------------------
MP,EX,371,15282.2168286573
MP,NUXY,371,0.30

!*---------------MATERIAL 372 (Used by 7 elements)------------------
MP,EX,372,15323.3285160321
MP,NUXY,372,0.30

!*---------------MATERIAL 373 (Used by 10 elements)------------------
MP,EX,373,15364.4402034068
MP,NUXY,373,0.30

!*---------------MATERIAL 374 (Used by 11 elements)------------------
MP,EX,374,15405.5518907816
MP,NUXY,374,0.30

!*---------------MATERIAL 375 (Used by 8 elements)------------------
MP,EX,375,15446.6635781563
MP,NUXY,375,0.30

!*---------------MATERIAL 376 (Used by 12 elements)------------------
MP,EX,376,15487.7752655311
MP,NUXY,376,0.30

!*---------------MATERIAL 377 (Used by 11 elements)------------------
MP,EX,377,15528.8869529058
MP,NUXY,377,0.30

!*---------------MATERIAL 378 (Used by 13 elements)------------------
MP,EX,378,15569.9986402806
MP,NUXY,378,0.30

!*---------------MATERIAL 379 (Used by 14 elements)------------------
MP,EX,379,15611.1103276553
MP,NUXY,379,0.30

!*---------------MATERIAL 380 (Used by 7 elements)------------------
MP,EX,380,15652.2220150301
MP,NUXY,380,0.30

!*---------------MATERIAL 381 (Used by 10 elements)------------------
MP,EX,381,15693.3337024048
MP,NUXY,381,0.30

!*---------------MATERIAL 382 (Used by 14 elements)------------------
MP,EX,382,15734.4453897796
MP,NUXY,382,0.30

!*---------------MATERIAL 383 (Used by 11 elements)------------------
MP,EX,383,15775.5570771543
MP,NUXY,383,0.30

!*---------------MATERIAL 384 (Used by 15 elements)------------------
MP,EX,384,15816.6687645291
MP,NUXY,384,0.30

!*---------------MATERIAL 385 (Used by 16 elements)------------------
MP,EX,385,15857.7804519038
MP,NUXY,385,0.30

!*---------------MATERIAL 386 (Used by 10 elements)------------------
MP,EX,386,15898.8921392786
MP,NUXY,386,0.30

!*---------------MATERIAL 387 (Used by 10 elements)------------------
MP,EX,387,15940.0038266533
MP,NUXY,387,0.30

!*---------------MATERIAL 388 (Used by 11 elements)------------------
MP,EX,388,15981.1155140281
MP,NUXY,388,0.30

!*---------------MATERIAL 389 (Used by 15 elements)------------------
MP,EX,389,16022.2272014028
MP,NUXY,389,0.30

!*---------------MATERIAL 390 (Used by 13 elements)------------------
MP,EX,390,16063.3388887776
MP,NUXY,390,0.30

!*---------------MATERIAL 391 (Used by 15 elements)------------------
MP,EX,391,16104.4505761523
MP,NUXY,391,0.30

!*---------------MATERIAL 392 (Used by 10 elements)------------------
MP,EX,392,16145.5622635271
MP,NUXY,392,0.30

!*---------------MATERIAL 393 (Used by 11 elements)------------------
MP,EX,393,16186.6739509018
MP,NUXY,393,0.30

!*---------------MATERIAL 394 (Used by 15 elements)------------------
MP,EX,394,16227.7856382766
MP,NUXY,394,0.30

!*---------------MATERIAL 395 (Used by 10 elements)------------------
MP,EX,395,16268.8973256513
MP,NUXY,395,0.30

!*---------------MATERIAL 396 (Used by 9 elements)------------------
MP,EX,396,16310.0090130261
MP,NUXY,396,0.30

!*---------------MATERIAL 397 (Used by 13 elements)------------------
MP,EX,397,16351.1207004008
MP,NUXY,397,0.30

!*---------------MATERIAL 398 (Used by 10 elements)------------------
MP,EX,398,16392.2323877756
MP,NUXY,398,0.30

!*---------------MATERIAL 399 (Used by 5 elements)------------------
MP,EX,399,16433.3440751503
MP,NUXY,399,0.30

!*---------------MATERIAL 400 (Used by 16 elements)------------------
MP,EX,400,16474.4557625251
MP,NUXY,400,0.30

!*---------------MATERIAL 401 (Used by 15 elements)------------------
MP,EX,401,16515.5674498998
MP,NUXY,401,0.30

!*---------------MATERIAL 402 (Used by 9 elements)------------------
MP,EX,402,16556.6791372746
MP,NUXY,402,0.30

!*---------------MATERIAL 403 (Used by 12 elements)------------------
MP,EX,403,16597.7908246493
MP,NUXY,403,0.30

!*---------------MATERIAL 404 (Used by 15 elements)------------------
MP,EX,404,16638.9025120241
MP,NUXY,404,0.30

!*---------------MATERIAL 405 (Used by 18 elements)------------------
MP,EX,405,16680.0141993988
MP,NUXY,405,0.30

!*---------------MATERIAL 406 (Used by 13 elements)------------------
MP,EX,406,16721.1258867735
MP,NUXY,406,0.30

!*---------------MATERIAL 407 (Used by 11 elements)------------------
MP,EX,407,16762.2375741483
MP,NUXY,407,0.30

!*---------------MATERIAL 408 (Used by 19 elements)------------------
MP,EX,408,16803.349261523
MP,NUXY,408,0.30

!*---------------MATERIAL 409 (Used by 7 elements)------------------
MP,EX,409,16844.4609488978
MP,NUXY,409,0.30

!*---------------MATERIAL 410 (Used by 11 elements)------------------
MP,EX,410,16885.5726362725
MP,NUXY,410,0.30

!*---------------MATERIAL 411 (Used by 14 elements)------------------
MP,EX,411,16926.6843236473
MP,NUXY,411,0.30

!*---------------MATERIAL 412 (Used by 19 elements)------------------
MP,EX,412,16967.796011022
MP,NUXY,412,0.30

!*---------------MATERIAL 413 (Used by 10 elements)------------------
MP,EX,413,17008.9076983968
MP,NUXY,413,0.30

!*---------------MATERIAL 414 (Used by 14 elements)------------------
MP,EX,414,17050.0193857715
MP,NUXY,414,0.30

!*---------------MATERIAL 415 (Used by 14 elements)------------------
MP,EX,415,17091.1310731463
MP,NUXY,415,0.30

!*---------------MATERIAL 416 (Used by 8 elements)------------------
MP,EX,416,17132.242760521
MP,NUXY,416,0.30

!*---------------MATERIAL 417 (Used by 11 elements)------------------
MP,EX,417,17173.3544478958
MP,NUXY,417,0.30

!*---------------MATERIAL 418 (Used by 16 elements)------------------
MP,EX,418,17214.4661352705
MP,NUXY,418,0.30

!*---------------MATERIAL 419 (Used by 19 elements)------------------
MP,EX,419,17255.5778226453
MP,NUXY,419,0.30

!*---------------MATERIAL 420 (Used by 10 elements)------------------
MP,EX,420,17296.68951002
MP,NUXY,420,0.30

!*---------------MATERIAL 421 (Used by 18 elements)------------------
MP,EX,421,17337.8011973948
MP,NUXY,421,0.30

!*---------------MATERIAL 422 (Used by 12 elements)------------------
MP,EX,422,17378.9128847695
MP,NUXY,422,0.30

!*---------------MATERIAL 423 (Used by 15 elements)------------------
MP,EX,423,17420.0245721443
MP,NUXY,423,0.30

!*---------------MATERIAL 424 (Used by 15 elements)------------------
MP,EX,424,17461.136259519
MP,NUXY,424,0.30

!*---------------MATERIAL 425 (Used by 13 elements)------------------
MP,EX,425,17502.2479468938
MP,NUXY,425,0.30

!*---------------MATERIAL 426 (Used by 16 elements)------------------
MP,EX,426,17543.3596342685
MP,NUXY,426,0.30

!*---------------MATERIAL 427 (Used by 7 elements)------------------
MP,EX,427,17584.4713216433
MP,NUXY,427,0.30

!*---------------MATERIAL 428 (Used by 11 elements)------------------
MP,EX,428,17625.583009018
MP,NUXY,428,0.30

!*---------------MATERIAL 429 (Used by 15 elements)------------------
MP,EX,429,17666.6946963928
MP,NUXY,429,0.30

!*---------------MATERIAL 430 (Used by 8 elements)------------------
MP,EX,430,17707.8063837675
MP,NUXY,430,0.30

!*---------------MATERIAL 431 (Used by 8 elements)------------------
MP,EX,431,17748.9180711423
MP,NUXY,431,0.30

!*---------------MATERIAL 432 (Used by 13 elements)------------------
MP,EX,432,17790.029758517
MP,NUXY,432,0.30

!*---------------MATERIAL 433 (Used by 9 elements)------------------
MP,EX,433,17831.1414458918
MP,NUXY,433,0.30

!*---------------MATERIAL 434 (Used by 10 elements)------------------
MP,EX,434,17872.2531332665
MP,NUXY,434,0.30

!*---------------MATERIAL 435 (Used by 12 elements)------------------
MP,EX,435,17913.3648206413
MP,NUXY,435,0.30

!*---------------MATERIAL 436 (Used by 10 elements)------------------
MP,EX,436,17954.476508016
MP,NUXY,436,0.30

!*---------------MATERIAL 437 (Used by 14 elements)------------------
MP,EX,437,17995.5881953908
MP,NUXY,437,0.30

!*---------------MATERIAL 438 (Used by 15 elements)------------------
MP,EX,438,18036.6998827655
MP,NUXY,438,0.30

!*---------------MATERIAL 439 (Used by 10 elements)------------------
MP,EX,439,18077.8115701403
MP,NUXY,439,0.30

!*---------------MATERIAL 440 (Used by 7 elements)------------------
MP,EX,440,18118.923257515
MP,NUXY,440,0.30

!*---------------MATERIAL 441 (Used by 14 elements)------------------
MP,EX,441,18160.0349448898
MP,NUXY,441,0.30

!*---------------MATERIAL 442 (Used by 12 elements)------------------
MP,EX,442,18201.1466322645
MP,NUXY,442,0.30

!*---------------MATERIAL 443 (Used by 11 elements)------------------
MP,EX,443,18242.2583196393
MP,NUXY,443,0.30

!*---------------MATERIAL 444 (Used by 21 elements)------------------
MP,EX,444,18283.370007014
MP,NUXY,444,0.30

!*---------------MATERIAL 445 (Used by 20 elements)------------------
MP,EX,445,18324.4816943888
MP,NUXY,445,0.30

!*---------------MATERIAL 446 (Used by 8 elements)------------------
MP,EX,446,18365.5933817635
MP,NUXY,446,0.30

!*---------------MATERIAL 447 (Used by 5 elements)------------------
MP,EX,447,18406.7050691383
MP,NUXY,447,0.30

!*---------------MATERIAL 448 (Used by 9 elements)------------------
MP,EX,448,18447.816756513
MP,NUXY,448,0.30

!*---------------MATERIAL 449 (Used by 7 elements)------------------
MP,EX,449,18488.9284438878
MP,NUXY,449,0.30

!*---------------MATERIAL 450 (Used by 10 elements)------------------
MP,EX,450,18530.0401312625
MP,NUXY,450,0.30

!*---------------MATERIAL 451 (Used by 10 elements)------------------
MP,EX,451,18571.1518186373
MP,NUXY,451,0.30

!*---------------MATERIAL 452 (Used by 15 elements)------------------
MP,EX,452,18612.263506012
MP,NUXY,452,0.30

!*---------------MATERIAL 453 (Used by 13 elements)------------------
MP,EX,453,18653.3751933868
MP,NUXY,453,0.30

!*---------------MATERIAL 454 (Used by 12 elements)------------------
MP,EX,454,18694.4868807615
MP,NUXY,454,0.30

!*---------------MATERIAL 455 (Used by 9 elements)------------------
MP,EX,455,18735.5985681363
MP,NUXY,455,0.30

!*---------------MATERIAL 456 (Used by 11 elements)------------------
MP,EX,456,18776.710255511
MP,NUXY,456,0.30

!*---------------MATERIAL 457 (Used by 8 elements)------------------
MP,EX,457,18817.8219428858
MP,NUXY,457,0.30

!*---------------MATERIAL 458 (Used by 8 elements)------------------
MP,EX,458,18858.9336302605
MP,NUXY,458,0.30

!*---------------MATERIAL 459 (Used by 10 elements)------------------
MP,EX,459,18900.0453176353
MP,NUXY,459,0.30

!*---------------MATERIAL 460 (Used by 16 elements)------------------
MP,EX,460,18941.15700501
MP,NUXY,460,0.30

!*---------------MATERIAL 461 (Used by 10 elements)------------------
MP,EX,461,18982.2686923848
MP,NUXY,461,0.30

!*---------------MATERIAL 462 (Used by 5 elements)------------------
MP,EX,462,19023.3803797595
MP,NUXY,462,0.30

!*---------------MATERIAL 463 (Used by 11 elements)------------------
MP,EX,463,19064.4920671343
MP,NUXY,463,0.30

!*---------------MATERIAL 464 (Used by 11 elements)------------------
MP,EX,464,19105.603754509
MP,NUXY,464,0.30

!*---------------MATERIAL 465 (Used by 12 elements)------------------
MP,EX,465,19146.7154418838
MP,NUXY,465,0.30

!*---------------MATERIAL 466 (Used by 10 elements)------------------
MP,EX,466,19187.8271292585
MP,NUXY,466,0.30

!*---------------MATERIAL 467 (Used by 7 elements)------------------
MP,EX,467,19228.9388166333
MP,NUXY,467,0.30

!*---------------MATERIAL 468 (Used by 8 elements)------------------
MP,EX,468,19270.050504008
MP,NUXY,468,0.30

!*---------------MATERIAL 469 (Used by 11 elements)------------------
MP,EX,469,19311.1621913828
MP,NUXY,469,0.30

!*---------------MATERIAL 470 (Used by 10 elements)------------------
MP,EX,470,19352.2738787575
MP,NUXY,470,0.30

!*---------------MATERIAL 471 (Used by 9 elements)------------------
MP,EX,471,19393.3855661323
MP,NUXY,471,0.30

!*---------------MATERIAL 472 (Used by 14 elements)------------------
MP,EX,472,19434.497253507
MP,NUXY,472,0.30

!*---------------MATERIAL 473 (Used by 7 elements)------------------
MP,EX,473,19475.6089408818
MP,NUXY,473,0.30

!*---------------MATERIAL 474 (Used by 3 elements)------------------
MP,EX,474,19516.7206282565
MP,NUXY,474,0.30

!*---------------MATERIAL 475 (Used by 9 elements)------------------
MP,EX,475,19557.8323156313
MP,NUXY,475,0.30

!*---------------MATERIAL 476 (Used by 9 elements)------------------
MP,EX,476,19598.944003006
MP,NUXY,476,0.30

!*---------------MATERIAL 477 (Used by 7 elements)------------------
MP,EX,477,19640.0556903808
MP,NUXY,477,0.30

!*---------------MATERIAL 478 (Used by 6 elements)------------------
MP,EX,478,19681.1673777555
MP,NUXY,478,0.30

!*---------------MATERIAL 479 (Used by 4 elements)------------------
MP,EX,479,19722.2790651303
MP,NUXY,479,0.30

!*---------------MATERIAL 480 (Used by 1 elements)------------------
MP,EX,480,19763.390752505
MP,NUXY,480,0.30

!*---------------MATERIAL 481 (Used by 4 elements)------------------
MP,EX,481,19804.5024398798
MP,NUXY,481,0.30

!*---------------MATERIAL 482 (Used by 9 elements)------------------
MP,EX,482,19845.6141272545
MP,NUXY,482,0.30

!*---------------MATERIAL 483 (Used by 6 elements)------------------
MP,EX,483,19886.7258146293
MP,NUXY,483,0.30

!*---------------MATERIAL 484 (Used by 3 elements)------------------
MP,EX,484,19927.837502004
MP,NUXY,484,0.30

!*---------------MATERIAL 485 (Used by 7 elements)------------------
MP,EX,485,19968.9491893788
MP,NUXY,485,0.30

!*---------------MATERIAL 486 (Used by 2 elements)------------------
MP,EX,486,20010.0608767535
MP,NUXY,486,0.30

!*---------------MATERIAL 487 (Used by 1 elements)------------------
MP,EX,487,20051.1725641283
MP,NUXY,487,0.30

!*---------------MATERIAL 488 (Used by 1 elements)------------------
MP,EX,488,20092.284251503
MP,NUXY,488,0.30

!*---------------MATERIAL 489 (Used by 4 elements)------------------
MP,EX,489,20133.3959388778
MP,NUXY,489,0.30

!*---------------MATERIAL 490 (Used by 2 elements)------------------
MP,EX,490,20174.5076262525
MP,NUXY,490,0.30

!*---------------MATERIAL 491 (Used by 1 elements)------------------
MP,EX,491,20215.6193136273
MP,NUXY,491,0.30

!*---------------MATERIAL 492 (Used by 2 elements)------------------
MP,EX,492,20256.731001002
MP,NUXY,492,0.30

!*---------------MATERIAL 493 (Used by 1 elements)------------------
MP,EX,493,20297.8426883768
MP,NUXY,493,0.30

!*---------------MATERIAL 494 (Used by 0 elements)------------------
MP,EX,494,20338.9543757515
MP,NUXY,494,0.30

!*---------------MATERIAL 495 (Used by 1 elements)------------------
MP,EX,495,20380.0660631263
MP,NUXY,495,0.30

!*---------------MATERIAL 496 (Used by 0 elements)------------------
MP,EX,496,20421.177750501
MP,NUXY,496,0.30

!*---------------MATERIAL 497 (Used by 0 elements)------------------
MP,EX,497,20462.2894378758
MP,NUXY,497,0.30

!*---------------MATERIAL 498 (Used by 1 elements)------------------
MP,EX,498,20503.4011252505
MP,NUXY,498,0.30

!*---------------MATERIAL 499 (Used by 1 elements)------------------
MP,EX,499,20544.5128126253
MP,NUXY,499,0.30

!*---------------MATERIAL 500 (Used by 1 elements)------------------
MP,EX,500,20585.6245
MP,NUXY,500,0.30
